function mpc = case6495rte
%CASE6495RTE  AC Power flow data for French system.
%   Please see CASEFORMAT for details on the case file format.
%
%   This case accurately represents the size and complexity of French
%   very high voltage and high voltage transmission network.
%   These data are snapshots of French VHV+HV grid in 2013.
%   These data can be used to validate mathematical methods and tools.
%   These data should NOT be used for operation
%   nor planning of the French or European grids.
%
%   When publishing results based on this data, please cite:
%
%     C. Josz, S. Fliscounakis, J. Maeght, and P. Panciatici, "AC Power Flow
%     Data in MATPOWER and QCQP Format: iTesla, RTE Snapshots, and PEGASE"
%     http://arxiv.org/abs/1603.01533
%
%   Contacts:
%     Cédric Josz, Stéphane Fliscounakis, Jean Maeght, Patrick Panciatici
%     firstname.lastname@rte-france.com
%     Réseau de Transport d'Electricité (French Transmission System Operator)
%     Département Expertise Système, Immeuble "Le Colbert"
%     9 rue de la Porte de Buc, 78000 Versailles Cedex, France
%
%   March 3rd, 2016

%   MATPOWER
%   Copyright (c) 2016 by Cédric Josz, Stéphane Fliscounakis, Jean Maeght,
%   and Patrick Panciatici
%   Licensed under the Creative Commons Attribution 4.0 International license,
%   http://creativecommons.org/licenses/by/4.0/

%% MATPOWER Case Format : Version 2
mpc.version = '2';

%%-----  Power Flow Data  -----%%
%% system MVA base
mpc.baseMVA = 100;

%% bus data
%	bus_i	type	Pd	Qd	Gs	Bs	area	Vm	Va	baseKV	zone	Vmax	Vmin
mpc.bus = [
	1	1	0	0	0	0	1	0.979893048	-10.3768261	45	1	1	0.888889;
	2	1	0	0	0	0	1	1.03715026	-10.3554691	63	1	1.06349	0.936508;
	3	1	13.1	2.6	0	0	1	1.02433173	-12.8534061	63	1	1.07937	0.952381;
	4	1	49.2	3.4	0	0	1	1.03921351	-24.1153288	90	1	1.08889	0.933333;
	5	1	11	0	0	0	1	1.01936346	-52.5501319	63	1	1.06349	0.952381;
	6	1	13	4.3	0	0	1	1.02004802	-21.2483732	63	1	1.07937	0.920635;
	7	1	1.2	0.7	0	0	1	1.04792706	-23.3284608	63	1	1.07937	0.920635;
	8	1	24.6	13.1	0	0	1	1.04830196	-17.3700741	225	1	1.08889	0.888889;
	9	1	14.9	0	0	0	1	1.04575179	-17.7128995	63	1	1.06349	0.936508;
	10	1	0	0	0	0	1	1.03364016	-22.9721855	90	1	1.07778	0.922222;
	11	1	30.7	-2	0	0	1	1.03363994	-22.972183	90	1	1.07778	0.922222;
	12	1	0	0	0	0	1	1.01664069	1.01323791	63	1	1.07937	0.952381;
	13	1	0	0	0	0	1	1.05890193	-3.64645757	380	1	1.10263	1.05313;
	14	1	52.7	13.4	0	30.4	1	1.0671468	-31.2262094	90	1	1.07778	0.977778;
	15	1	0	0	0	0	1	1.03133856	-23.3422562	63	1	1.07937	0.920635;
	16	1	12.5	-0.6	0	0	1	1.03134679	-29.0313207	63	1	1.07937	0.920635;
	17	1	10.9	0.2	0	0	1	1.04794596	-31.3481823	90	1	1.06667	0.977778;
	18	1	0	0	0	0	1	0.936377787	-5.06544702	45	1	1	0.888889;
	19	1	0	0	0	0	1	1.03087171	-20.3196785	63	1	1.06349	0.936508;
	20	1	3.9	-18.2	0	0	1	0.937158468	-5.10023226	45	1	1	0.888889;
	21	1	6.3	-2.5	0	0	1	1.03894873	-19.7127085	90	1	1.06667	0.977778;
	22	1	17.3	0.8	0	0	1	1.02417072	-13.0166794	63	1	1.07937	0.952381;
	23	1	24.4	1.4	0	0	1	1.01426878	-10.2175532	63	1	1.06349	0.936508;
	24	1	16.7	-1.3	0	0	1	1.04175688	-22.5362878	90	1	1.11111	0.955556;
	25	1	51.1	-4	0	0	1	1.07638926	-18.9285736	90	1	1.1	0.944444;
	26	1	32.4	5	0	0	1	1.0352752	-25.1015831	90	1	1.06667	0.977778;
	27	1	0	0	0	0	1	1.06660839	-20.5147974	225	1	1.08444	1.00444;
	28	1	0	-0.2	0	0	1	1.03351276	-20.2158954	63	1	1.07937	0.952381;
	29	1	75	9.3	0	0	1	0.993975162	-23.136013	63	1	1.06349	0.968254;
	30	1	37.6	3.3	0	0	1	1.03314256	-23.1778346	90	1	1.08889	0.933333;
	31	1	0	0	0	0	1	1.03625024	-8.99316829	63	1	1.06349	0.936508;
	32	1	0	0	0	0	1	1.04470302	-3.80682716	150	1	1.10667	0.9;
	33	1	0	0	0	0	1	1.05413664	-6.21339632	225	1	1.08889	0.933333;
	34	1	0	0	0	0	1	1.04983156	-5.54355372	225	1	1.08889	0.933333;
	35	1	0	0	0	0	1	1.07133358	-4.99227828	380	1	1.10526	1.03947;
	36	1	0	0	0	0	1	1.07322038	-3.90267037	380	1	1.10526	1.03947;
	37	1	2.4	4.7	0	0	1	1.01508935	-25.6290612	63	1	1.07937	0.920635;
	38	1	8	3	0	0	1	1.03528191	-20.7803563	63	1	1.09524	0.936508;
	39	1	40.6	-4.9	0	0	1	1.0138152	-38.8457623	90	1	1.07778	0.977778;
	40	1	34.7	5.1	0	0	1	1.05527447	-29.4760069	90	1	1.07778	0.977778;
	41	1	0	0	0	0	1	1.07410025	-25.8455379	225	1	1.09152	1.00444;
	42	1	0	0	0	0	1	1.12162006	4.48114191	63	1	1.12834	0.952381;
	43	1	3.3	2.7	0	0	1	1.04783898	-26.6714372	90	1	1.07778	0.977778;
	44	1	15.2	1.6	0	0	1	1.02768593	-49.8132016	63	1	1.06349	0.952381;
	45	1	3.8	0.8	0	0	1	1.02336375	-33.4018313	90	1	1.06667	0.977778;
	46	1	0	0	0	0	1	1.03292446	-15.1098515	63	1	1.06349	0.936508;
	47	2	0	0	0	0	1	1.027	-12.083344	63	1	1.06349	0.936508;
	48	1	38.6	3.9	0	0	1	1.03526823	-23.9652248	90	1	1.07778	0.922222;
	49	1	9.9	-2.6	0	0	1	1.03702466	-15.8386251	63	1	1.06349	0.936508;
	50	1	0	0	0	0	1	1.07071557	-13.4433142	63	1	1.07458	0.936508;
	51	1	0	0	0	0	1	1.05549555	-8.72688394	225	1	1.08889	0.933333;
	52	1	8	3.5	0	0	1	1.03612192	-34.8372976	90	1	1.06667	0.977778;
	53	1	0.1	-1.2	0	0	1	1.00766185	-27.119197	63	1	1.04762	0.952381;
	54	1	-0.6	1.2	0	0	1	1.03886174	-17.8087968	90	1	1.06667	0.977778;
	55	1	49	11.3	0	0	1	1.07439337	-28.5325781	225	1	1.08991	1.00444;
	56	1	78.6	22.5	0	0	1	1.06403386	-24.7163715	225	1	1.08889	1.00444;
	57	2	0	0	0	0	1	1.061	-19.0743248	63	1	1.07937	0.920635;
	58	1	146.7	32.5	0	0	1	1.07422414	-28.5476197	225	1	1.08975	1.00444;
	59	1	5.1	0.4	0	0	1	1.04830263	-11.1695545	63	1	1.07937	0.952381;
	60	1	0	0	0	0	1	1.03839799	-5.55113533	63	1	1.07937	0.952381;
	61	1	41.4	11.6	0	0	1	1.04122846	-7.53885721	63	1	1.07937	0.952381;
	62	1	0	0	0	0	1	1.02509397	-5.66246789	63	1	1.07937	0.952381;
	63	1	15.8	2	0	0	1	1.01103702	0.0424383585	63	1	1.07937	0.952381;
	64	1	64.3	5.4	0	0	1	1.06588036	-16.5426802	225	1	1.08889	0.888889;
	65	1	12	2.9	0	0	1	1.05154171	-8.12705692	63	1	1.07937	0.952381;
	66	1	14.4	-6.8	0	0	1	1.0416174	-24.3594319	63	1	1.06349	0.936508;
	67	1	1	0	0	0	1	1.04174355	-20.4532918	63	1	1.07937	0.920635;
	68	1	48.7	3.8	0	0	1	1.02271664	-15.0424467	63	1	1.06349	0.936508;
	69	1	17.3	-1.6	0	0	1	1.0446944	-53.9257484	63	1	1.06349	0.952381;
	70	1	11.7	3.5	0	0	1	1.0211168	1.75224351	63	1	1.07937	0.952381;
	71	1	68.8	17.2	0	0	1	1.02187174	-27.6353903	63	1	1.04762	0.952381;
	72	1	0	0	0	0	1	1.07905772	-20.4454849	225	1	1.08892	1.00444;
	73	1	0	0	0	0	1	1.07905853	-20.4447201	225	1	1.08892	1.00444;
	74	1	53.3	-8.7	0	0	1	1.06637837	-16.3923304	225	1	1.08889	0.888889;
	75	1	25	1.6	0	0	1	1.04842048	-21.1820269	90	1	1.06667	0.977778;
	76	1	9	0.7	0	0	1	1.07517032	3.47900906	225	1	1.08889	0.986667;
	77	1	40.8	-1.5	0	0	1	1.02800455	-16.3349876	63	1	1.06349	0.936508;
	78	1	0	0	0	0	1	1.03831897	-26.3244184	63	1	1.07937	0.920635;
	79	1	0	0	0	0	1	1.01089841	-26.183276	63	1	1.04762	0.952381;
	80	1	34.6	10.4	0	0	1	1.04923048	-25.848135	225	1	1.08889	1.00444;
	81	1	34.6	9	0	0	1	1.04924992	-25.8480644	225	1	1.08889	1.00444;
	82	1	11.6	-0.2	0	0	1	1.0384376	-16.7259604	63	1	1.06349	0.936508;
	83	1	92.4	64.5	0	0	1	1.05946458	-26.2942368	225	1	1.08889	1.00444;
	84	1	1.4	-0.2	0	0	1	1.02536595	-12.5330646	63	1	1.06349	0.936508;
	85	1	1.8	-2	0	0	1	1.04847454	-16.0537832	63	1	1.06568	0.936508;
	86	1	44.9	3.7	0	0	1	1.03240006	-42.3544522	90	1	1.06667	0.977778;
	87	1	0	0	0	0	1	1.02476015	0.189234452	63	1	1.07937	0.952381;
	88	1	15.9	2	0	0	1	1.03992315	-18.4990468	63	1	1.06349	0.936508;
	89	1	25.7	0.4	0	0	1	1.04374964	-29.2142493	90	1	1.07778	0.977778;
	90	1	0.4	-2.3	0	0	1	0.941141294	-5.76927592	45	1	1	0.888889;
	91	1	0	0	0	0	1	0.936377787	-5.06544702	45	1	1	0.888889;
	92	1	31.6	3.2	0	0	1	1.01482002	-18.9752952	63	1	1.06349	0.968254;
	93	1	2.2	-2.2	0	0	1	0.953435375	-7.72442804	45	1	1	0.888889;
	94	1	16.9	-4.6	0	0	1	1.04421444	-24.0559689	90	1	1.06667	0.977778;
	95	1	53.2	9.3	0	0	1	1.03697618	-34.730461	90	1	1.06667	0.977778;
	96	1	1.2	0.1	0	0	1	1.05121477	-8.32668915	63	1	1.06349	0.936508;
	97	1	55	1.6	0	0	1	1.03680942	-23.8967173	63	1	1.07937	0.920635;
	98	1	7.7	-2.1	0	0	1	1.03306301	-19.305384	63	1	1.07937	0.952381;
	99	1	31.9	5	0	0	1	1.04753422	-7.21416459	63	1	1.07937	0.952381;
	100	1	59.9	8.9	0	0	1	1.02153611	-14.1138264	63	1	1.06349	0.936508;
	101	1	17.1	0.1	0	0	1	1.01462219	-13.3414563	63	1	1.06349	0.936508;
	102	2	0	0	0	0	1	1.03	-14.7394089	63	1	1.07937	0.952381;
	103	1	13	-1.4	0	0	1	1.04168196	-5.9124754	63	1	1.07937	0.952381;
	104	1	0	0	0	0	1	1.07376319	-3.24103261	225	1	1.08889	0.986667;
	105	1	37.7	0.8	0	0	1	1.0476859	-15.0454002	225	1	1.08889	0.888889;
	106	1	56.3	8.2	0	0	1	1.05807326	-19.8747997	90	1	1.1	0.944444;
	107	1	107.4	13.9	0	0	1	1.04740374	-28.4302924	225	1	1.08444	1.00889;
	108	1	12.7	-3.9	0	0	1	1.05194743	-24.8950195	90	1	1.07778	0.977778;
	109	1	60.8	4.1	0	0	1	1.04888746	-12.4858197	63	1	1.06837	0.936508;
	110	1	0	0	0	0	1	1.03317493	-8.83146225	225	1	1.08889	0.933333;
	111	1	37.3	-7.4	0	0	1	1.00285431	-21.3961828	63	1	1.06349	0.968254;
	112	1	0	0	0	0	1	1.02277458	-27.3291888	63	1	1.04762	0.952381;
	113	1	0	0	0	0	1	1.05428214	-23.8486593	225	1	1.08889	1.00444;
	114	1	12.9	0.7	0	0	1	1.04699471	-11.7135619	63	1	1.06349	0.936508;
	115	1	0	0	0	0	1	1.05891111	-3.64654095	380	1	1.10526	1.05263;
	116	1	0	0	0	0	1	1.05891111	-3.64654095	380	1	1.10526	1.05263;
	117	1	12.8	-2.1	0	0	1	1.02390906	-18.3028877	63	1	1.07937	0.952381;
	118	1	2	0.8	0	0	1	1.0508012	-20.8600636	90	1	1.06667	0.977778;
	119	1	40.3	3.7	0	0	1	1.01921766	-10.1804408	63	1	1.06349	0.936508;
	120	1	22	-2.3	0	0	1	1.01796489	-9.15733727	63	1	1.06349	0.936508;
	121	1	22.1	6.8	0	0	1	1.02368034	-25.6646161	63	1	1.07937	0.920635;
	122	2	0	0	0	0	1	1.038	-6.82675392	63	1	1.07937	0.952381;
	123	1	11	3.7	0	0	1	1.0359314	-6.95350482	63	1	1.07937	0.952381;
	124	1	8.9	-2.2	0	0	1	1.04547533	-27.3968828	90	1	1.06667	0.977778;
	125	1	11.6	-1.2	0	0	1	1.03277618	-13.6066251	63	1	1.07937	0.952381;
	126	1	0.4	0.3	0	0	1	1.05036369	-16.0236274	63	1	1.06349	0.936508;
	127	1	10.7	2.9	0	0	1	1.01431466	-30.0051866	63	1	1.04762	0.952381;
	128	1	13.4	5	0	0	1	1.02103073	-11.2979252	63	1	1.06349	0.968254;
	129	1	17	12.8	0	0	1	1.01953551	-9.55719239	63	1	1.06349	0.968254;
	130	1	0	0	0	0	1	1.04904375	-8.72555958	225	1	1.08444	1.00889;
	131	1	110.7	4.4	0	0	1	1.04723325	-16.2594936	225	1	1.08444	1.00889;
	132	2	9.4	0	0	0	1	1.068	-17.1797687	90	1	1.07778	0.922222;
	133	1	2.5	-0.1	0	0	1	0.985771946	-29.7504791	63	1	1.04762	0.952381;
	134	1	101.1	28.6	0	0	1	1.03201673	-26.5791626	225	1	1.08889	1.00444;
	135	1	0	0	0	0	1	1.07521745	-28.3621828	225	1	1.09072	1.00444;
	136	1	23.7	0.6	0	0	1	1.04368464	-37.7238495	90	1	1.07778	0.977778;
	137	2	8.1	-3.8	0	0	1	1.032	-12.8887764	63	1	1.06349	0.968254;
	138	1	0	0	0	0	1	1.05024707	-11.0755553	150	1	1.08	0.966667;
	139	1	15.7	4.1	0	0	1	1.03445563	-16.9390403	63	1	1.07937	0.920635;
	140	1	0	0	0	80	1	1.05987232	-13.2255136	225	1	1.08889	1;
	141	1	0	0	0	0	1	1.06803927	-9.79432415	380	1	1.10526	1.05263;
	142	1	12.5	1.1	0	0	1	1.05173173	-10.7314443	63	1	1.07937	0.952381;
	143	1	0	0	0	0	1	1.069667	-6.32556381	225	1	1.08889	0.986667;
	144	1	8.9	2.5	0	0	1	1.04615994	-20.7164905	90	1	1.11111	0.955556;
	145	1	24	7.7	0	0	1	1.06730872	-16.2828642	225	1	1.08889	0.968889;
	146	1	0	0	0	0	1	1.07893565	-13.2565255	380	1	1.10526	1;
	147	1	28	4.6	0	0	1	1.0460682	-14.7875757	63	1	1.06349	0.936508;
	148	1	6.6	1.5	0	0	1	1.04459985	-12.1022181	63	1	1.06349	0.936508;
	149	1	15.9	4.2	0	0	1	1.04278468	-33.9950246	90	1	1.06667	0.977778;
	150	1	48.4	1	0	0	1	1.0345059	-9.49190197	63	1	1.06349	0.936508;
	151	1	0	0	0	0	1	0.984485029	-24.2430812	63	1	1.06349	0.968254;
	152	1	42.6	9.4	0	7.7	1	0.984373819	-22.988736	63	1	1.06349	0.968254;
	153	1	26.9	-4.9	0	0	1	1.04181198	-10.7366802	63	1	1.06349	0.936508;
	154	1	0	0	0	0	1	1.06419161	-7.4594666	225	1	1.08889	0.933333;
	155	2	0	0	0	0	1	1.04606359	-21.140902	63	1	1.07937	0.920635;
	156	1	0	0	0	0	1	0.984438426	-24.2481413	63	1	1.06349	0.968254;
	157	1	-1.4	-2.3	0	0	1	0.93033985	-9.08222663	45	1	1	0.888889;
	158	2	0	0	0	0	1	0.963	-8.51156895	45	1	1	0.888889;
	159	1	0	0	0	0	1	1.03333219	-11.9335484	63	1	1.06349	0.936508;
	160	1	39.6	5.7	0	0	1	1.05587049	-13.5394301	225	1	1.08889	0.888889;
	161	1	40.6	10.8	0	0	1	1.05565475	-13.5407201	225	1	1.08889	0.888889;
	162	1	-0.1	-1.2	0	0	1	1.02219857	-24.9428349	90	1	1.06667	0.977778;
	163	1	0	0	0	0	1	1.02286077	-6.44251223	63	1	1.07937	0.952381;
	164	1	0	0	0	0	1	1.02286077	-6.44251223	63	1	1.07937	0.952381;
	165	1	12.5	6.7	0	0	1	1.07403518	-29.5511273	20	1	1.15	0.8;
	166	1	8.1	-0.3	0	0	1	1.04275466	-33.6436872	90	1	1.06667	0.977778;
	167	1	8.3	-2	0	0	1	1.04027647	-34.1112677	90	1	1.06667	0.977778;
	168	1	0	0	0	0	1	1.07409653	-29.5462001	225	1	1.08444	1.00444;
	169	1	9.1	-0.5	0	0	1	1.03640065	-29.6709628	90	1	1.06667	0.977778;
	170	1	78.8	13.1	0	0	1	1.04459062	-29.4504458	90	1	1.07778	0.977778;
	171	1	26.3	-0.9	0	30	1	1.05951006	-32.3605127	90	1	1.07921	0.977778;
	172	1	0	0	0	0	1	1.06881147	-28.1963472	225	1	1.08889	1.00444;
	173	1	28.9	8.2	0	0	1	1.07000053	-17.9396571	90	1	1.08889	0.933333;
	174	1	54.8	9.7	0	0	1	1.07058638	-20.6359947	90	1	1.11111	0.955556;
	175	1	0	0	0	0	1	1.02623844	-20.4004716	63	1	1.07937	0.920635;
	176	2	0	0	0	0	1	1.09807384	-18.170938	150	1	1.1	0.9;
	177	1	0	0	0	0	1	1.06740858	-26.5950591	225	1	1.08889	1.00444;
	178	1	0	0	0	0	1	1.0674088	-26.5950603	225	1	1.08889	1.00444;
	179	1	0	0	0	0	1	1.01447721	-29.9954878	63	1	1.04762	0.952381;
	180	1	0	0	0	0	1	1.0674073	-26.5950521	225	1	1.08889	1.00444;
	181	1	14.2	-5	0	0	1	1.04276469	-25.7016665	63	1	1.07937	0.920635;
	182	1	15	4.1	0	0	1	1.04407781	-9.36641029	63	1	1.06349	0.936508;
	183	1	6.2	-0.7	0	0	1	1.03668717	-19.3274022	63	1	1.07937	0.952381;
	184	1	4	1.4	0	0	1	1.06425697	-26.0579053	90	1	1.07778	0.977778;
	185	1	28.1	2.7	0	0	1	1.04327826	-11.5442269	63	1	1.07937	0.952381;
	186	1	0.4	1.3	0	0	1	1.0290045	-23.510342	90	1	1.06667	0.977778;
	187	2	0	0	0	0	1	1.05051182	-20.9900302	63	1	1.07937	0.920635;
	188	1	0	0	0	0	1	1.09615659	-19.2244145	63	1	1.10211	0.920635;
	189	1	16.4	2.1	0	0	1	1.03429537	-24.0858699	63	1	1.07937	0.920635;
	190	2	0	0	0	0	1	0.949967688	-6.96346435	45	1	1	0.888889;
	191	1	14.3	-1.2	0	0	1	1.03808607	-29.727828	90	1	1.06667	0.977778;
	192	1	7.2	-2	0	0	1	1.06203927	-19.6835663	63	1	1.07937	0.920635;
	193	1	-0.3	0.8	0	0	1	1.05393537	-24.3564537	225	1	1.08889	1.00444;
	194	2	0.7	-2.2	0	0	1	1.059	-24.4585786	63	1	1.07937	0.920635;
	195	1	0	0	0	0	1	1.05832148	-26.6696164	63	1	1.07545	0.952381;
	196	1	0	0	0	0	1	1.05832293	-26.669659	63	1	1.07546	0.952381;
	197	1	27.3	0.8	0	15	1	1.02026619	-31.8670207	63	1	1.07937	0.920635;
	198	1	10	-0.7	0	0	1	1.03635018	-21.1800518	63	1	1.07937	0.920635;
	199	1	11.4	1.5	0	0	1	1.02199189	-40.0182133	90	1	1.06667	0.977778;
	200	1	0	0	0	0	1	1.08301901	-22.2931995	225	1	1.08889	1;
	201	1	62.6	22.9	0	0	1	1.04436274	-15.3884841	225	1	1.08889	0.888889;
	202	1	48.1	0.6	0	0	1	0.989677072	-27.5531691	63	1	1.06349	0.968254;
	203	1	23.4	3.7	0	0	1	1.06042657	-15.4696966	90	1	1.1	0.944444;
	204	1	0	0	0	0	1	1.06978953	-11.9481334	225	1	1.08889	0.968889;
	205	1	0	0	0	0	1	1.08582544	-8.30246238	380	1	1.10526	1;
	206	1	50.6	6.4	0	0	1	1.0064033	-25.330007	63	1	1.06349	0.968254;
	207	1	32.8	5	0	0	1	1.00209559	-12.3918785	63	1	1.06349	0.968254;
	208	1	18	-0.4	0	0	1	1.03674342	-25.0757239	90	1	1.07778	0.977778;
	209	1	0.6	1.4	0	0	1	1.01697821	-18.8885891	63	1	1.06349	0.968254;
	210	1	41.1	6.8	0	0	1	0.999946854	-15.2601409	63	1	1.06349	0.968254;
	211	1	28.1	13.4	0	0	1	0.999986373	-15.1085438	63	1	1.06349	0.968254;
	212	1	0	0	0	0	1	1.04467142	-15.0563987	225	1	1.08444	1.00889;
	213	1	0	0	0	0	1	1.04460481	-15.0394889	225	1	1.08444	1.00889;
	214	1	40.9	3.5	0	30.4	1	1.05351711	-33.7855068	90	1	1.07778	0.977778;
	215	1	0	0	0	0	1	1.06315026	-30.0412438	225	1	1.08889	1.00444;
	216	1	20.6	-4	0	0	1	0.999755148	-16.3924177	63	1	1.06349	0.952381;
	217	1	26.6	2.7	0	0	1	1.0263754	-29.8450461	90	1	1.06667	0.977778;
	218	1	-0.6	1.1	0	0	1	1.03926694	-17.8311307	90	1	1.06667	0.977778;
	219	1	12	-3.2	0	0	1	1.05982359	-28.4275653	90	1	1.06812	0.977778;
	220	1	12.7	1.4	0	0	1	1.02397085	-4.26812719e-05	63	1	1.07937	0.952381;
	221	1	8.6	-3.8	0	0	1	1.03812722	-17.2048211	63	1	1.06349	0.936508;
	222	1	0	0	0	0	1	1.09095418	-14.4482663	225	1	1.09432	0.933333;
	223	1	41.4	-0.1	0	0	1	1.03147633	-25.8507581	63	1	1.07937	0.920635;
	224	2	0	0	0	0	1	1.09802378	-18.1699659	150	1	1.1	0.9;
	225	1	66.8	4.8	0	0	1	1.05186845	-14.6708662	225	1	1.08444	1.00889;
	226	1	66.8	43.8	0	0	1	1.05124549	-14.6645159	225	1	1.08444	1.00889;
	227	1	5	-1.8	0	0	1	1.02145523	-55.9527092	63	1	1.06349	0.952381;
	228	1	10.9	-2	0	0	1	1.01759019	-56.4837789	63	1	1.06349	0.952381;
	229	1	10.5	-3.1	0	0	1	1.04812521	-21.0580923	63	1	1.07937	0.920635;
	230	1	0	0	0	0	1	1.05158389	-14.8173736	225	1	1.08889	0.977778;
	231	1	7	-1.4	0	0	1	1.03927735	-29.0275127	90	1	1.06667	0.977778;
	232	1	5.1	0.9	0	0	1	1.0328614	-13.1069653	90	1	1.08889	0.933333;
	233	1	0	0	0	0	1	1.05368207	-14.6274321	20	1	1.15	0.8;
	234	1	23	7.1	0	0	1	1.05368207	-14.6274321	90	1	1.08889	0.933333;
	235	1	14.9	2.2	0	0	1	1.06832851	-11.2997131	225	1	1.08889	0.888889;
	236	1	23.8	1.3	0	0	1	1.04936733	-22.4626728	90	1	1.07778	0.922222;
	237	1	40.5	3.2	0	0	1	1.04651527	-10.3679679	63	1	1.06349	0.936508;
	238	1	25	-2.5	0	0	1	1.03907617	-27.9516924	90	1	1.06667	0.977778;
	239	1	52.1	2	0	0	1	1.023565	-58.1329313	63	1	1.06349	0.952381;
	240	1	46.6	6.6	0	0	1	1.03846197	-26.3221394	63	1	1.07937	0.920635;
	241	1	52.9	7.4	0	0	1	1.02315926	-24.2358188	90	1	1.07778	0.922222;
	242	1	56.3	9.3	0	0	1	0.994240215	-24.9807834	63	1	1.06349	0.968254;
	243	1	27.7	-3.4	0	0	1	1.02057469	-28.5162824	63	1	1.07937	0.920635;
	244	1	52.3	2.2	0	0	1	1.05012014	-18.0566541	90	1	1.07778	0.922222;
	245	1	13.7	-2.2	0	0	1	1.02318028	-27.1710983	63	1	1.07937	0.920635;
	246	2	10.5	3.9	0	0	1	1.01843728	-4.66723789	63	1	1.06349	0.936508;
	247	1	0	0	0	0	1	1.0501661	-3.23372076	225	1	1.08889	0.933333;
	248	1	32.4	13.6	0	0	1	1.06279228	-24.9782102	225	1	1.08889	1.00444;
	249	1	22.8	-2.7	0	0	1	1.02988452	-28.5044202	63	1	1.07937	0.920635;
	250	1	26.2	-8.1	0	0	1	1.02156277	-22.6839426	63	1	1.07937	0.952381;
	251	1	11.3	1.7	0	0	1	1.03502349	-33.2461662	90	1	1.06667	0.977778;
	252	1	10.1	-2.2	0	0	1	1.02940017	-24.0093891	90	1	1.06667	0.977778;
	253	1	50.7	3.9	0	0	1	1.03449873	-19.6993029	63	1	1.07937	0.952381;
	254	1	17.8	3.6	0	0	1	1.03093749	-19.8605396	63	1	1.07937	0.952381;
	255	1	10.5	2.1	0	0	1	1.02472731	-19.2277379	63	1	1.06349	0.936508;
	256	2	2.8	0	0	0	1	1.047	-21.7878311	63	1	1.07937	0.920635;
	257	1	0	0	0	0	1	1.08035266	-22.4758983	225	1	1.08889	1;
	258	2	-0	0	0	0	1	1.079	-13.1346298	90	1	1.07924	0.922222;
	259	1	32.3	3.1	0	0	1	1.05321277	-17.7521403	63	1	1.07937	0.952381;
	260	1	0	0	0	0	1	1.06852019	-15.5448788	225	1	1.08889	0.986667;
	261	2	0	0	0	0	1	1.03809865	-27.8744741	63	1	1.07937	0.920635;
	262	1	0	0	0	80	1	1.06224211	-12.5344257	225	1	1.08889	0.888889;
	263	1	0	0	0	0	1	1.04941575	-14.3131771	225	1	1.08889	0.888889;
	264	1	0	0	0	0	1	1.06202964	-8.66137669	380	1	1.10526	1.01316;
	265	1	0	0	0	0	1	1.00037744	-28.103089	63	1	1.04762	0.952381;
	266	1	29.7	8.4	0	0	1	1.06452562	-24.6567267	225	1	1.08889	1.00444;
	267	1	65.5	9.9	0	0	1	1.04841331	-26.0512823	225	1	1.08889	1.00444;
	268	1	13.2	13.1	0	0	1	1.00327689	-18.443712	63	1	1.07937	0.920635;
	269	1	24.5	1.6	0	0	1	1.00878337	-29.9385244	63	1	1.07937	0.920635;
	270	1	0	0	0	0	1	1.04268375	-10.3423781	225	1	1.08889	0.977778;
	271	1	0	0	0	0	1	1.04283617	-10.3419534	225	1	1.08889	0.977778;
	272	1	44.2	6.9	0	0	1	1.02404231	-15.719636	63	1	1.06349	0.968254;
	273	1	29.5	5	0	0	1	1.03982599	-11.1736796	225	1	1.08444	1.00889;
	274	1	53.3	7.5	0	0	1	1.07140481	-20.5497908	90	1	1.1	0.944444;
	275	1	0	0	0	0	1	1.07708732	-25.1951478	225	1	1.08444	1.00444;
	276	1	0	0	0	0	1	1.08644504	-19.4710161	380	1	1.10263	1.04211;
	277	1	1.8	3	0	0	1	1.0457138	-27.9914799	90	1	1.06667	0.977778;
	278	1	-1.7	4.6	0	0	1	1.07684777	-25.2518836	225	1	1.08444	1.00444;
	279	1	12	-1.1	0	0	1	1.0215041	-21.3062036	63	1	1.06349	0.936508;
	280	1	48.8	7.7	0	0	1	1.05012132	-33.9683196	90	1	1.07778	0.977778;
	281	1	11.8	-0	0	0	1	1.01994474	-15.2348522	63	1	1.07937	0.952381;
	282	2	0	0	0	0	1	1.01843778	-4.66724943	63	1	1.06349	0.936508;
	283	1	10.8	-1	0	0	1	1.03614937	-34.976062	90	1	1.06667	0.977778;
	284	1	16.1	3.1	0	0	1	1.01758712	1.25883592	63	1	1.07937	0.952381;
	285	1	0.3	5.7	0	0	1	1.06500363	-24.5370537	225	1	1.08889	1.00444;
	286	1	31.3	25.5	0	0	1	1.06479408	-24.5510322	225	1	1.08889	1.00444;
	287	1	27.8	-2	0	0	1	1.0415265	-24.7054363	90	1	1.06667	0.977778;
	288	1	34.7	-1.1	0	0	1	1.03994247	-30.5221379	90	1	1.06667	0.977778;
	289	1	27.3	-6.6	0	0	1	1.07741013	-0.0466451995	225	1	1.08985	0.888889;
	290	1	3.4	3.9	0	0	1	1.07037581	-13.2536995	90	1	1.11111	0.955556;
	291	1	14.3	-1.9	0	0	1	1.02437552	-26.2000589	63	1	1.07937	0.920635;
	292	1	0	0.5	0	0	1	1.03860199	-13.2430311	63	1	1.06349	0.936508;
	293	1	43	-1.7	0	0	1	1.03862018	-13.2435793	63	1	1.06349	0.936508;
	294	1	0	-0.9	0	0	1	1.03295864	-12.5941044	63	1	1.07937	0.952381;
	295	1	21.3	4.3	0	0	1	1.05390338	-16.1529174	225	1	1.08889	0.888889;
	296	1	8	-0.6	0	0	1	1.0189003	-18.3275408	63	1	1.07937	0.952381;
	297	1	1	-1	0	0	1	1.01367016	-19.2703759	63	1	1.06349	0.936508;
	298	1	13	0	0	0	1	1.00645208	-9.47888871	63	1	1.06349	0.936508;
	299	1	0	0.1	0	0	1	1.06418712	-13.3819438	90	1	1.11111	0.955556;
	300	1	54.4	17.4	0	0	1	1.06809893	-10.7061656	225	1	1.08889	0.888889;
	301	1	3.3	0.1	0	0	1	0.998578911	-12.5862354	63	1	1.06349	0.968254;
	302	1	16.3	3.7	0	0	1	1.02862271	-11.8841659	63	1	1.06349	0.936508;
	303	1	41.9	10.9	0	0	1	0.991381333	-34.6929608	63	1	1.07937	0.920635;
	304	1	35.5	-0.5	0	0	1	1.00633647	-23.8275008	63	1	1.06349	0.968254;
	305	2	0	0	0	0	1	1.053	-15.7404958	63	1	1.07088	0.936508;
	306	1	13.9	-1.5	0	0	1	1.01766812	-15.6122686	63	1	1.07937	0.952381;
	307	1	19.2	-2.8	0	0	1	1.0136652	-40.7014829	90	1	1.06667	0.977778;
	308	1	0.6	0.2	0	0	1	1.03987591	-25.996149	63	1	1.07937	0.920635;
	309	1	7	2.5	0	0	1	1.03283091	-28.3991366	63	1	1.06349	0.968254;
	310	1	12	3.5	0	0	1	1.03309434	-28.4242862	63	1	1.06349	0.968254;
	311	1	1.5	-0	0	0	1	1.01432129	-30.9131851	90	1	1.06667	0.977778;
	312	1	-2.5	-0.8	0	0	1	1.02079372	-10.6367867	90	1	1.07778	0.922222;
	313	1	30.7	3.2	0	0	1	1.04229698	-22.315202	63	1	1.07937	0.920635;
	314	1	0	0	0	0	1	1.06964043	-18.4868332	225	1	1.08889	1;
	315	1	20.8	-1.1	0	0	1	1.06341208	-26.2432348	90	1	1.07778	0.977778;
	316	1	28.6	7.2	0	0	1	1.02464361	-26.5397301	63	1	1.07937	0.920635;
	317	2	0	0	0	0	1	1.06376485	-20.2565602	63	1	1.07937	0.920635;
	318	1	13.3	4.1	0	0	1	1.02107033	-27.7823351	63	1	1.04762	0.952381;
	319	2	0	0	0	0	1	1.03536964	-27.420133	63	1	1.07937	0.920635;
	320	1	35	4.3	0	0	1	1.06015465	-18.3314305	90	1	1.1	0.944444;
	321	1	0	0	0	0	1	1.05199905	-24.6933583	63	1	1.07937	0.920635;
	322	1	0	0	0	0	1	1.03020475	-14.8027685	225	1	1.08889	1;
	323	1	0	0	0	0	1	1.06835466	-14.6436251	380	1	1.10526	1.05263;
	324	1	26.4	4.7	0	0	1	1.03544013	-10.6322933	63	1	1.06349	0.936508;
	325	2	18.6	10.7	0	0	1	1.03522259	-13.6000384	63	1	1.06349	0.936508;
	326	1	10.8	17.1	0	0	1	1.05170362	-20.1978282	63	1	1.07937	0.920635;
	327	1	0	0	0	0	1	1.05511306	-17.0988411	225	1	1.08889	1;
	328	1	34.6	4.3	0	0	1	1.03149734	-22.216583	63	1	1.07937	0.920635;
	329	1	73.9	3.5	0	0	1	1.06464218	-19.1800323	90	1	1.1	0.944444;
	330	1	81.7	-1.6	0	0	1	1.04987845	-24.8133793	63	1	1.07937	0.920635;
	331	1	0	0	0	0	1	1.07080751	-20.5131015	225	1	1.08889	1;
	332	2	8.4	-0.2	0	0	1	1.03194429	-32.0957418	63	1	1.06349	0.968254;
	333	2	0	0	0	0	1	1.0473898	-25.0793666	150	1	1.08	0.966667;
	334	1	6.9	-3.3	0	0	1	1.04947456	-53.1480479	63	1	1.06349	0.952381;
	335	1	8	0	0	0	1	1.03396225	-17.2394691	63	1	1.06349	0.936508;
	336	2	0.7	0	0	0	1	1.026	-21.9492976	63	1	1.07937	0.920635;
	337	1	14.6	-0.6	0	0	1	1.04516174	-27.8669538	63	1	1.07937	0.920635;
	338	2	0	0	0	0	1	1.06787506	-22.9279908	63	1	1.07937	0.920635;
	339	1	15.1	2.3	0	0	1	1.04196715	-24.7120245	63	1	1.07937	0.920635;
	340	1	23.8	1	0	0	1	1.05538345	-27.7279399	90	1	1.06667	0.977778;
	341	1	7.3	-10.4	0	0	1	1.06004478	-25.3354013	63	1	1.07937	0.920635;
	342	1	12.1	-2.7	0	0	1	1.02535201	-13.4869862	63	1	1.07937	0.952381;
	343	1	0	0	0	0	1	1.03200458	-10.5153385	225	1	1.08889	0.986667;
	344	1	11.9	-3.5	0	0	1	1.00896899	-15.5281506	63	1	1.06349	0.968254;
	345	1	27.4	-5.7	0	0	1	1.03264588	-25.6612657	90	1	1.07778	0.977778;
	346	1	13.1	0.2	0	0	1	1.06153386	-6.80602171	225	1	1.08444	1.00889;
	347	1	-1.4	-0.3	0	0	1	1.038852	-28.4678801	63	1	1.06349	0.968254;
	348	1	54	7.1	0	0	1	1.06021012	-22.198311	90	1	1.1	0.944444;
	349	1	0	0	0	0	1	1.09514547	-11.6578802	380	1	1.10695	1.04211;
	350	1	0	0	0	0	1	1.09513358	-11.6699471	380	1	1.10699	1.04211;
	351	1	26.7	5.9	0	0	1	1.07260669	-17.1720353	225	1	1.08889	1;
	352	1	11.5	11.6	0	0	1	1.06440835	-26.1866263	225	1	1.08889	1.00444;
	353	1	31.7	-8.3	0	0	1	1.02795822	-29.1916739	63	1	1.04762	0.952381;
	354	1	1.6	1.3	0	0	1	1.02851959	-20.0572474	63	1	1.07937	0.920635;
	355	1	3	-1.9	0	0	1	1.04958114	-10.0003256	63	1	1.07937	0.920635;
	356	1	6	2	0	0	1	1.02270616	-22.5029165	63	1	1.07937	0.920635;
	357	1	15.5	0.3	0	0	1	1.01639978	-13.4986638	63	1	1.07937	0.952381;
	358	1	23.7	7.8	0	0	1	1.02313934	-22.4742091	63	1	1.07937	0.920635;
	359	1	33.7	1.3	0	0	1	1.01652722	-23.6352908	63	1	1.06349	0.968254;
	360	1	54.2	1.5	0	19	1	1.0443874	-25.5025528	63	1	1.07937	0.920635;
	361	1	0	0	0	0	1	1.0747314	-21.7909412	150	1	1.1	0.9;
	362	1	0	0	0	0	1	1.07363604	-20.3622282	225	1	1.08889	1;
	363	1	9.5	5.1	0	0	1	1.07103299	-17.9438971	90	1	1.08889	0.933333;
	364	2	-3	0	0	0	1	1.049	-25.8976207	225	1	1.08889	1.00444;
	365	1	-0	-0.1	0	0	1	1.03404434	-9.18536912	63	1	1.06349	0.936508;
	366	1	0	0	0	0	1	1.04844498	-5.50274758	225	1	1.08889	0.933333;
	367	1	0	0	0	0	1	1.07318411	-3.85227208	380	1	1.10526	1.03947;
	368	1	0	0	0	0	1	1.07068964	-4.92607275	380	1	1.10526	1.03947;
	369	1	0	0	0	0	1	1.07474128	-28.5067468	225	1	1.09026	1.00444;
	370	1	62	14.3	0	0	1	1.03067239	-26.7952947	225	1	1.08889	1.00444;
	371	1	11.8	2.7	0	0	1	1.01070798	-0.00389582555	63	1	1.07937	0.952381;
	372	1	0	0	0	0	1	1.04599644	-1.99258893	225	1	1.08889	0.986667;
	373	1	25	8.3	0	0	1	1.07455655	-28.5213035	225	1	1.09008	1.00444;
	374	1	23.9	1.1	0	0	1	1.00331834	-55.3853538	63	1	1.06349	0.952381;
	375	1	15	-1.4	0	0	1	1.02627869	-35.7363139	90	1	1.06667	0.977778;
	376	1	53.8	1.5	0	0	1	1.02501453	-42.0957258	63	1	1.06349	0.952381;
	377	1	4.2	-1.9	0	0	1	1.02318901	-10.7194737	63	1	1.07937	0.952381;
	378	1	29.7	2.1	0	0	1	1.04732465	-15.8319582	63	1	1.06349	0.936508;
	379	1	0	0	0	0	1	1.05365153	-11.4139226	225	1	1.08889	0.933333;
	380	1	0	0	0	0	1	1.07558614	-8.61716569	380	1	1.10526	1.03947;
	381	1	49.3	5	0	0	1	1.0338767	-32.3564593	90	1	1.07778	0.977778;
	382	1	16.4	-0.9	0	0	1	1.02727684	-5.35257436	63	1	1.07937	0.952381;
	383	1	44.9	16.5	0	0	1	1.03946811	-15.0955468	63	1	1.07937	0.920635;
	384	1	18.2	2.1	0	0	1	1.00832137	-28.4967318	63	1	1.07937	0.920635;
	385	1	15.8	9.8	0	0	1	1.02142853	-4.35666921	63	1	1.07937	0.920635;
	386	1	42.8	9.1	0	0	1	1.07748509	-16.8722625	225	1	1.08889	1;
	387	1	5.7	-2	0	0	1	1.06366944	-15.8441075	90	1	1.07778	0.922222;
	388	1	44.7	1.2	0	0	1	1.05441067	-20.55177	90	1	1.1	0.944444;
	389	1	26.8	0.5	0	0	1	1.04414764	-15.0271914	63	1	1.06349	0.936508;
	390	1	2.8	0.5	0	0	1	1.0234174	-15.7602472	63	1	1.06349	0.968254;
	391	1	21.2	-4.4	0	0	1	1.04334366	-22.411263	63	1	1.07937	0.920635;
	392	1	29.2	0.1	0	0	1	1.00237267	-25.9789616	63	1	1.06349	0.968254;
	393	1	5	0.1	0	0	1	1.0360919	-15.392956	63	1	1.07937	0.952381;
	394	1	6	2	0	0	1	1.03672915	-22.1795209	63	1	1.07937	0.920635;
	395	1	41	3.9	0	0	1	1.03683125	-22.173342	63	1	1.07937	0.920635;
	396	1	0	0	0	0	1	1.04478084	-4.64251974	63	1	1.07937	0.952381;
	397	1	13	-2.4	0	0	1	1.04103864	-27.3033919	63	1	1.07937	0.920635;
	398	1	6	0.6	0	0	1	1.03692158	-34.8848315	90	1	1.06667	0.977778;
	399	1	3.5	3.8	0	0	1	1.06212103	-20.120538	63	1	1.07937	0.920635;
	400	1	20.1	2	0	0	1	1.03908861	-23.5540108	63	1	1.07937	0.920635;
	401	1	5	0.1	0	0	1	1.04400563	-16.3249423	63	1	1.06349	0.936508;
	402	1	21.7	-0.2	0	0	1	1.03158916	-26.4596942	90	1	1.07778	0.922222;
	403	1	20	2.7	0	0	1	1.04449307	-11.2006196	63	1	1.06349	0.936508;
	404	1	31.5	9.5	0	0	1	1.04392378	-13.42175	63	1	1.06372	0.936508;
	405	1	6.9	3.7	0	0	1	1.0261238	-15.9245124	63	1	1.06349	0.936508;
	406	1	59.9	1.9	0	0	1	1.02659562	-25.9634059	90	1	1.06667	0.977778;
	407	1	0.6	0.2	0	0	1	1.04594346	-30.3081515	90	1	1.06667	0.977778;
	408	1	13.8	-4.1	0	0	1	1.05996133	-29.9738109	63	1	1.07937	0.920635;
	409	2	0	0	0	0	1	1.03010219	-24.9872831	63	1	1.06349	0.968254;
	410	1	20	1.9	0	0	1	1.03901446	-38.1022814	90	1	1.06667	0.977778;
	411	1	15.9	-0.7	0	0	1	1.03569581	-30.1693725	90	1	1.06667	0.977778;
	412	1	22.8	-5.3	0	0	1	1.01718355	-7.48203749	63	1	1.07937	0.952381;
	413	1	28.1	0.9	0	0	1	1.03811598	-53.4618027	63	1	1.06349	0.952381;
	414	1	-0.3	0.6	0	0	1	1.01311025	-16.9776643	63	1	1.06349	0.936508;
	415	1	9.6	-1.7	0	0	1	1.02995292	-20.5589323	63	1	1.07937	0.952381;
	416	1	20.4	-31.1	0	0	1	1.07022776	-27.3595312	225	1	1.08923	1.00444;
	417	1	18.3	5.2	0	0	1	1.04224416	-30.3076822	63	1	1.07937	0.920635;
	418	1	9	3.1	0	0	1	1.01297644	-27.5769913	63	1	1.04762	0.952381;
	419	1	27.2	5.3	0	0	1	1.05465853	-29.1633716	63	1	1.07937	0.920635;
	420	1	-4.3	-0.7	0	0	1	1.05771546	-28.7528785	63	1	1.07937	0.920635;
	421	1	0	0	0	0	1	1.01514686	-33.8288257	63	1	1.06349	0.968254;
	422	1	0	0	0	0	1	1.04901883	-20.671992	63	1	1.07937	0.920635;
	423	1	0	0	0	0	1	1.07617869	-17.7762043	225	1	1.08911	1;
	424	1	0	0	0	0	1	1.03781475	-2.27241252	63	1	1.07937	0.952381;
	425	1	0	0	0	0	1	1.06679883	1.13368684	225	1	1.08889	0.986667;
	426	1	0	0	0	0	1	1.02020862	-28.2957025	63	1	1.04762	0.952381;
	427	1	-0.1	0.3	0	0	1	1.02769925	-9.65549765	63	1	1.06349	0.936508;
	428	1	7	-2	0	0	1	1.03069569	-45.7840777	63	1	1.06349	0.952381;
	429	1	56.7	7.2	0	0	1	1.02546967	-18.5986382	63	1	1.06349	0.968254;
	430	1	114	32.2	0	0	1	1.07410479	-25.840946	225	1	1.09152	1.00444;
	431	1	13	0.2	0	0	1	1.0605157	-22.0216793	63	1	1.07937	0.920635;
	432	1	25	-2.5	0	0	1	1.03898047	-36.6024796	63	1	1.07937	0.920635;
	433	1	3.2	3.9	0	0	1	1.05003832	-28.2858901	63	1	1.06645	0.952381;
	434	1	14	-3.6	0	0	1	1.02161889	-13.4132911	63	1	1.06349	0.936508;