function mpc = case6515rte
%CASE6515RTE  AC Power flow data for French system.
%   Please see CASEFORMAT for details on the case file format.
%
%   This case accurately represents the size and complexity of French
%   very high voltage and high voltage transmission network.
%   These data are snapshots of French VHV+HV grid in 2013.
%   These data can be used to validate mathematical methods and tools.
%   These data should NOT be used for operation
%   nor planning of the French or European grids.
%
%   When publishing results based on this data, please cite:
%
%     C. Josz, S. Fliscounakis, J. Maeght, and P. Panciatici, "AC Power Flow
%     Data in MATPOWER and QCQP Format: iTesla, RTE Snapshots, and PEGASE"
%     http://arxiv.org/abs/1603.01533
%
%   Contacts:
%     Cédric Josz, Stéphane Fliscounakis, Jean Maeght, Patrick Panciatici
%     firstname.lastname@rte-france.com
%     Réseau de Transport d'Electricité (French Transmission System Operator)
%     Département Expertise Système, Immeuble "Le Colbert"
%     9 rue de la Porte de Buc, 78000 Versailles Cedex, France
%
%   March 3rd, 2016

%   MATPOWER
%   Copyright (c) 2016 by Cédric Josz, Stéphane Fliscounakis, Jean Maeght,
%   and Patrick Panciatici
%   Licensed under the Creative Commons Attribution 4.0 International license,
%   http://creativecommons.org/licenses/by/4.0/

%% MATPOWER Case Format : Version 2
mpc.version = '2';

%%-----  Power Flow Data  -----%%
%% system MVA base
mpc.baseMVA = 100;

%% bus data
%	bus_i	type	Pd	Qd	Gs	Bs	area	Vm	Va	baseKV	zone	Vmax	Vmin
mpc.bus = [
	1	1	0	0	0	0	1	0.992673125	-12.8471377	45	1	1	0.888889;
	2	1	0	0	0	0	1	1.02546105	-9.79090947	63	1	1.06349	0.936508;
	3	1	14.8	3.8	0	0	1	1.00864353	-17.1895145	63	1	1.07937	0.952381;
	4	1	49.6	2.8	0	0	1	1.02422997	-30.343276	90	1	1.08889	0.933333;
	5	1	12.9	0.9	0	0	1	1.00903343	-61.8409771	63	1	1.06349	0.952381;
	6	1	13	5.3	0	0	1	1.03039688	-21.8739211	63	1	1.07937	0.920635;
	7	1	2.3	0.2	0	0	1	1.04823977	-23.3329536	63	1	1.07937	0.920635;
	8	1	15.8	-0.3	0	0	1	1.04175444	-22.659297	225	1	1.08889	0.888889;
	9	1	14.9	0	0	0	1	1.04155579	-20.2679216	63	1	1.06349	0.936508;
	10	1	0	0	0	0	1	1.0132689	-29.1463296	90	1	1.07778	0.922222;
	11	1	33.2	4.9	0	0	1	1.01326868	-29.1463272	90	1	1.07778	0.922222;
	12	1	0	0	0	0	1	1.01492907	-3.69736777	63	1	1.07937	0.952381;
	13	1	0	0	0	0	1	1.06112977	-5.52856096	380	1	1.10263	1.05271;
	14	1	63.2	13.3	0	30.4	1	1.05559114	-38.6865005	90	1	1.07778	0.977778;
	15	1	0	0	0	0	1	1.02066892	-25.2263375	63	1	1.07937	0.920635;
	16	1	13.9	1.9	0	0	1	1.03089962	-28.9019546	63	1	1.07937	0.920635;
	17	1	10.9	0.1	0	0	1	1.04190862	-35.5001147	90	1	1.06667	0.977778;
	18	1	0	0	0	0	1	0.938816943	-6.53938592	45	1	1	0.888889;
	19	1	1	0	0	0	1	1.01915832	-24.0844174	63	1	1.06349	0.936508;
	20	1	5.6	-18	0	0	1	0.939550393	-6.5786432	45	1	1	0.888889;
	21	1	7.6	-1.6	0	0	1	1.02352369	-23.3128349	90	1	1.06667	0.977778;
	22	1	18.5	1	0	0	1	1.00657527	-18.245777	63	1	1.07937	0.952381;
	23	1	22.4	2.2	0	0	1	1.01974649	-11.4972658	63	1	1.06349	0.936508;
	24	1	17	-1.5	0	0	1	1.02620358	-28.8977254	90	1	1.11111	0.955556;
	25	1	54.7	-1.1	0	0	1	1.06210876	-24.9347957	90	1	1.1	0.944444;
	26	1	15.1	10.6	0	0	1	1.01923142	-30.5619937	90	1	1.06667	0.977778;
	27	1	0	0	0	0	1	1.05630842	-25.6901089	225	1	1.08444	1.00444;
	28	1	0.9	-0.2	0	0	1	1.01919759	-24.3820624	63	1	1.07937	0.952381;
	29	1	76.5	9.4	0	0	1	0.992476874	-26.274171	63	1	1.06349	0.968254;
	30	1	39.9	3.5	0	0	1	1.01607663	-29.4588142	90	1	1.08889	0.933333;
	31	1	0	0	0	0	1	1.04325949	-10.3722447	63	1	1.06349	0.936508;
	32	1	0	0	0	0	1	1.0482513	-5.17611119	150	1	1.10667	0.9;
	33	1	0	0	0	0	1	1.05862347	-7.53647866	225	1	1.08889	0.933333;
	34	1	0	0	0	0	1	1.05568981	-6.87832327	225	1	1.08889	0.933333;
	35	1	0	0	0	0	1	1.07212104	-6.27267486	380	1	1.10526	1.03947;
	36	1	0	0	0	0	1	1.07555328	-5.29121134	380	1	1.10526	1.03947;
	37	1	-2.7	3	0	0	1	1.01345584	-27.1537318	63	1	1.07937	0.920635;
	38	1	5	-1	0	0	1	1.02829838	-25.8684243	63	1	1.09524	0.936508;
	39	1	43.6	-2.9	0	0	1	1.01570693	-46.2156561	90	1	1.07778	0.977778;
	40	1	38.1	4.1	0	0	1	1.04839394	-36.8261167	90	1	1.07778	0.977778;
	41	1	0	0	0	0	1	1.05970737	-31.1653571	225	1	1.08889	1.00444;
	42	1	0	0	0	0	1	1.12316346	0.171268459	63	1	1.13099	0.952381;
	43	1	3.2	2.7	0	0	1	1.03415253	-33.026203	90	1	1.07778	0.977778;
	44	1	13.3	0.1	0	0	1	1.02400777	-57.5229333	63	1	1.06349	0.952381;
	45	1	3.8	1.6	0	0	1	1.01408884	-40.0298803	90	1	1.06667	0.977778;
	46	1	0	0	0	0	1	1.02956066	-17.1027795	63	1	1.06349	0.936508;
	47	2	0	0	0	0	1	1.022	-13.006679	63	1	1.06349	0.936508;
	48	1	40.4	5.6	0	0	1	1.01540389	-30.4810602	90	1	1.07778	0.922222;
	49	1	9.8	-1.9	0	0	1	1.0241398	-18.4598697	63	1	1.06349	0.936508;
	50	1	0	0	0	0	1	1.06676716	-15.8911637	63	1	1.06927	0.936508;
	51	1	0	0	0	0	1	1.05441957	-10.919134	225	1	1.08889	0.933333;
	52	1	6.5	2.9	0	0	1	1.02819015	-42.0616957	90	1	1.06667	0.977778;
	53	1	0	-1.3	0	0	1	0.990894456	-33.1970632	63	1	1.04762	0.952381;
	54	1	0.3	-0.3	0	0	1	1.03197366	-22.2968493	90	1	1.06667	0.977778;
	55	1	50.9	12.3	0	0	1	1.06700842	-34.6141552	225	1	1.08889	1.00444;
	56	1	75.5	20.5	0	0	1	1.05516756	-29.8601461	225	1	1.08889	1.00444;
	57	2	0	0	0	0	1	1.058	-20.1693954	63	1	1.07937	0.920635;
	58	1	154	36.4	0	0	1	1.06686281	-34.6314288	225	1	1.08889	1.00444;
	59	1	5	1	0	0	1	1.02827769	-15.3855852	63	1	1.07937	0.952381;
	60	1	0	0	0	0	1	1.0337691	-9.9719196	63	1	1.07937	0.952381;
	61	1	46.3	11.9	0	0	1	1.03489853	-11.5603392	63	1	1.07937	0.952381;
	62	1	0	0	0	0	1	1.02055977	-9.93967295	63	1	1.07937	0.952381;
	63	1	16.8	2.9	0	0	1	1.0112534	-4.26584306	63	1	1.07937	0.952381;
	64	1	67.3	7.1	0	0	1	1.05467311	-22.3706653	225	1	1.08889	0.888889;
	65	1	12	2.8	0	0	1	1.04688113	-12.1924535	63	1	1.07937	0.952381;
	66	1	13	-6.4	0	0	1	1.02707223	-27.7656942	63	1	1.06349	0.936508;
	67	1	1	0	0	0	1	1.03945348	-23.5570146	63	1	1.07937	0.920635;
	68	1	53.1	1.1	0	0	1	1.01382383	-17.068817	63	1	1.06349	0.936508;
	69	1	20.8	1.3	0	0	1	1.04182792	-62.4588387	63	1	1.06349	0.952381;
	70	1	10.6	4.2	0	0	1	1.02517777	-2.58318588	63	1	1.07937	0.952381;
	71	1	69.4	17.5	0	0	1	1.00979621	-33.3578345	63	1	1.04762	0.952381;
	72	1	0	0	0	0	1	1.07727637	-26.6245331	225	1	1.08889	1.00444;
	73	1	0	0	0	0	1	1.07728775	-26.6238384	225	1	1.08889	1.00444;
	74	1	58.8	-5	0	0	1	1.05521642	-22.2096659	225	1	1.08889	0.888889;
	75	1	25.2	1.9	0	0	1	1.03831803	-25.8993445	90	1	1.06667	0.977778;
	76	1	5.9	-2.1	0	0	1	1.07673551	-0.737800075	225	1	1.08889	0.986667;
	77	1	43.7	0.4	0	0	1	1.01539346	-18.6809907	63	1	1.06349	0.936508;
	78	1	0	0	0	0	1	1.03810449	-26.0425496	63	1	1.07937	0.920635;
	79	1	0	0	0	0	1	1.00480897	-32.1704872	63	1	1.04762	0.952381;
	80	1	32.4	10.5	0	0	1	1.03513924	-31.7118517	225	1	1.08889	1.00444;
	81	1	32.4	9.1	0	0	1	1.03515795	-31.7118034	225	1	1.08889	1.00444;
	82	1	11.3	0.3	0	0	1	1.02513848	-19.7466558	63	1	1.06349	0.936508;
	83	1	79	24.8	0	0	1	1.04529914	-32.2878169	225	1	1.08889	1.00444;
	84	1	-0.1	0.4	0	0	1	1.01622729	-14.3105965	63	1	1.06349	0.936508;
	85	1	0.7	-1.5	0	0	1	1.04080844	-18.1005924	63	1	1.06349	0.936508;
	86	1	48.8	5.2	0	0	1	1.01614449	-49.9270109	90	1	1.06667	0.977778;
	87	1	0	0	0	0	1	1.02330517	-4.28707361	63	1	1.07937	0.952381;
	88	1	14.8	-1.2	0	0	1	1.03614098	-22.0451103	63	1	1.06349	0.936508;
	89	1	26.2	0.3	0	0	1	1.02844336	-35.7613286	90	1	1.07778	0.977778;
	90	1	0.2	-2.3	0	0	1	0.942964456	-7.25414887	45	1	1	0.888889;
	91	1	0	0	0	0	1	0.938816943	-6.53938592	45	1	1	0.888889;
	92	1	31.8	1.1	0	0	1	1.00914587	-21.2607832	63	1	1.06349	0.968254;
	93	1	2	-2.8	0	0	1	0.954341202	-8.94487733	45	1	1	0.888889;
	94	1	18.2	-4	0	0	1	1.0348292	-29.3342649	90	1	1.06667	0.977778;
	95	1	57.2	9.4	0	0	1	1.02330918	-41.8968451	90	1	1.06667	0.977778;
	96	1	0.9	-0.2	0	0	1	1.05013888	-10.4724751	63	1	1.06349	0.936508;
	97	1	57.7	3.8	0	0	1	1.0637675	-23.1503147	63	1	1.07937	0.920635;
	98	1	9.5	1	0	0	1	1.01837903	-23.6016005	63	1	1.07937	0.952381;
	99	1	35.8	5.9	0	0	1	1.04200009	-11.2421339	63	1	1.07937	0.952381;
	100	1	63	7.8	0	0	1	1.0198988	-16.7237189	63	1	1.06349	0.936508;
	101	1	17.3	-0.8	0	0	1	1.00720077	-15.4022054	63	1	1.06349	0.936508;
	102	2	0	0	0	0	1	1.033	-17.5428369	63	1	1.07937	0.952381;
	103	1	12.6	-1.2	0	0	1	1.03402232	-10.2412822	63	1	1.07937	0.952381;
	104	1	0	0	0	0	1	1.06896149	-7.24533817	225	1	1.08889	0.986667;
	105	1	36.9	2.2	0	0	1	1.03585863	-20.6678397	225	1	1.08889	0.888889;
	106	1	58.2	10.7	0	0	1	1.04519922	-25.684212	90	1	1.1	0.944444;
	107	1	107	14.3	0	0	1	1.040509	-31.5107115	225	1	1.08444	1.00889;
	108	1	12.2	-2.4	0	0	1	1.04638166	-31.1343278	90	1	1.07778	0.977778;
	109	1	67.8	8.7	0	0	1	1.03905102	-13.9671499	63	1	1.06349	0.936508;
	110	1	0	0	0	0	1	1.02643332	-9.99598604	225	1	1.08889	0.933333;
	111	1	38.7	-7.5	0	0	1	0.999939733	-23.8557541	63	1	1.06349	0.968254;
	112	1	0	0	0	0	1	1.0084672	-32.7244461	63	1	1.04762	0.952381;
	113	1	0	0	0	0	1	1.04193595	-29.0769585	225	1	1.08889	1.00444;
	114	1	13.4	1.1	0	0	1	1.05164361	-14.0192231	63	1	1.06349	0.936508;
	115	1	0	0	0	0	1	1.06113897	-5.52864435	380	1	1.10526	1.05263;
	116	1	0	0	0	0	1	1.06113897	-5.52864435	380	1	1.10526	1.05263;
	117	1	14.9	0.2	0	0	1	1.0148958	-22.0594793	63	1	1.07937	0.952381;
	118	1	2	0.7	0	0	1	1.0407153	-25.5846169	90	1	1.06667	0.977778;
	119	1	40.6	6.9	0	0	1	1.00751513	-12.2929818	63	1	1.06349	0.936508;
	120	1	22	-2.3	0	0	1	1.02701829	-10.6746379	63	1	1.06349	0.936508;
	121	1	20.8	1.4	0	0	1	1.01905698	-28.4357141	63	1	1.07937	0.920635;
	122	2	0	0	0	0	1	1.026	-11.4893332	63	1	1.07937	0.952381;
	123	1	12	4.6	0	0	1	1.02345495	-11.6208216	63	1	1.07937	0.952381;
	124	1	8	-0.4	0	0	1	1.03058281	-32.0456097	90	1	1.06667	0.977778;
	125	1	11.1	0.4	0	0	1	1.02451482	-17.6128119	63	1	1.07937	0.952381;
	126	1	0.2	0.8	0	0	1	1.04200581	-18.1711791	63	1	1.06349	0.936508;
	127	1	14.7	2.7	0	0	1	1.00893682	-34.7845994	63	1	1.04762	0.952381;
	128	1	13.8	7.2	0	0	1	1.02420693	-13.4505926	63	1	1.06349	0.968254;
	129	1	19.1	10.8	0	0	1	1.02228026	-11.684565	63	1	1.06349	0.968254;
	130	1	0	0	0	0	1	1.04938638	-10.7559484	225	1	1.08444	1.00889;
	131	1	119.3	12	0	0	1	1.04797649	-19.2970195	225	1	1.08444	1.00889;
	132	2	9.4	0	0	0	1	1.061	-17.4067202	90	1	1.07778	0.922222;
	133	1	2.7	0.4	0	0	1	0.977015678	-35.7038784	63	1	1.04762	0.952381;
	134	1	101.1	27.4	0	0	1	1.01919465	-32.3675851	225	1	1.08889	1.00444;
	135	1	0	0	0	0	1	1.06787852	-34.4372217	225	1	1.08889	1.00444;
	136	1	23.9	1.4	0	0	1	1.02860167	-45.1625315	90	1	1.07778	0.977778;
	137	2	8.7	-3	0	0	1	1.021	-13.7741519	63	1	1.06349	0.968254;
	138	1	0	0	0	0	1	1.05230738	-11.8528375	150	1	1.08	0.966667;
	139	1	8	7.1	0	0	1	1.04648958	-14.9227418	63	1	1.07937	0.920635;
	140	1	0	0	0	80	1	1.07646104	-11.6950122	225	1	1.08889	1;
	141	1	0	0	0	0	1	1.08763346	-8.32866303	380	1	1.10526	1.05263;
	142	1	22.4	7.4	0	0	1	1.03228893	-14.8981507	63	1	1.07937	0.952381;
	143	1	0	0	0	0	1	1.06313802	-9.96969754	225	1	1.08889	0.986667;
	144	1	16	5	0	0	1	1.03309181	-26.8698953	90	1	1.11111	0.955556;
	145	1	23.4	9	0	0	1	1.05635444	-22.0953535	225	1	1.08889	0.968889;
	146	1	0	0	0	0	1	1.07128281	-18.8795632	380	1	1.10526	1;
	147	1	30	5.5	0	0	1	1.04390759	-16.0736886	63	1	1.06349	0.936508;
	148	1	6.6	1.2	0	0	1	1.03749817	-13.2119304	63	1	1.06349	0.936508;
	149	1	16.9	4.1	0	0	1	1.03408373	-41.2236007	90	1	1.06667	0.977778;
	150	1	48.5	3.2	0	0	1	1.04112536	-10.8602978	63	1	1.06349	0.936508;
	151	1	0	0	0	0	1	0.98098642	-26.9365676	63	1	1.06349	0.968254;
	152	1	45.3	12	0	7.7	1	0.980839029	-25.6821086	63	1	1.06349	0.968254;
	153	1	27.3	-5.5	0	0	1	1.04181234	-13.2314985	63	1	1.06349	0.936508;
	154	1	0	0	0	0	1	1.06674466	-9.80672971	225	1	1.08889	0.933333;
	155	2	0	0	0	0	1	1.03406286	-20.2221707	63	1	1.07937	0.920635;
	156	1	0	0	0	0	1	0.980935792	-26.9415225	63	1	1.06349	0.968254;
	157	1	0	-2.2	0	0	1	0.935542823	-10.5371068	45	1	1	0.888889;
	158	2	0	0	0	0	1	0.959	-8.8219929	45	1	1	0.888889;
	159	1	0	0	0	0	1	1.03725797	-13.4653506	63	1	1.06349	0.936508;
	160	1	41.7	5.9	0	0	1	1.04467103	-19.1138119	225	1	1.08889	0.888889;
	161	1	43.7	10	0	0	1	1.04448642	-19.1176995	225	1	1.08889	0.888889;
	162	1	-0.3	-1.6	0	0	1	1.01339884	-30.3158034	90	1	1.06667	0.977778;
	163	1	0	0	0	0	1	1.02801672	-10.7250105	63	1	1.07937	0.952381;
	164	1	0	0	0	0	1	1.02801672	-10.7250105	63	1	1.07937	0.952381;
	165	1	16.5	14.6	0	0	1	1.05983201	-36.314939	20	1	1.15	0.8;
	166	1	13.3	3.2	0	0	1	1.03524133	-40.7823374	90	1	1.06667	0.977778;
	167	1	17.8	-0.8	0	0	1	1.02999342	-41.2456122	90	1	1.06667	0.977778;
	168	1	0	0	0	0	1	1.05995948	-36.3084919	225	1	1.08444	1.00444;
	169	1	9.9	-0.9	0	0	1	1.01990731	-34.6512734	90	1	1.06667	0.977778;
	170	1	79.8	13.5	0	0	1	1.02344208	-35.0733645	90	1	1.07778	0.977778;
	171	1	28	0.8	0	30	1	1.04082815	-39.1279989	90	1	1.07778	0.977778;
	172	1	0	0	0	0	1	1.04692773	-34.5246347	225	1	1.08889	1.00444;
	173	1	28.5	8	0	0	1	1.0590281	-23.829887	90	1	1.08889	0.933333;
	174	1	59.7	11.6	0	0	1	1.05612022	-26.5540592	90	1	1.11111	0.955556;
	175	1	0	0	0	0	1	1.03904928	-18.731462	63	1	1.07937	0.920635;
	176	2	0	0	0	0	1	1.0990839	-16.9543598	150	1	1.1	0.9;
	177	1	0	0	0	0	1	1.06242189	-31.0018642	225	1	1.08889	1.00444;
	178	1	0	0	0	0	1	1.06242211	-31.0018654	225	1	1.08889	1.00444;
	179	1	0	0	0	0	1	1.00913769	-34.7703996	63	1	1.04762	0.952381;
	180	1	0	0	0	0	1	1.06242061	-31.0018573	225	1	1.08889	1.00444;
	181	1	12.7	-5.3	0	0	1	1.05536442	-25.4715017	63	1	1.07937	0.920635;
	182	1	16	3.1	0	0	1	1.03881229	-11.07428	63	1	1.06349	0.936508;
	183	1	5.5	-1.7	0	0	1	1.02470235	-22.7861282	63	1	1.07937	0.952381;
	184	1	5	1.4	0	0	1	1.06245644	-33.1058103	90	1	1.07778	0.977778;
	185	1	30.6	2.7	0	0	1	1.02299848	-15.8326102	63	1	1.07937	0.952381;
	186	1	1.2	0.2	0	0	1	1.02336193	-28.6617357	90	1	1.06667	0.977778;
	187	2	0	0	0	0	1	1.05073012	-20.5024991	63	1	1.07937	0.920635;
	188	1	0	0	0	0	1	1.09874151	-19.0660354	63	1	1.09875	0.920635;
	189	1	16.8	1.8	0	0	1	1.0371871	-24.0139136	63	1	1.07937	0.920635;
	190	2	0	0	0	0	1	0.952733602	-8.26372461	45	1	1	0.888889;
	191	1	15.4	-1.1	0	0	1	1.02020663	-34.5833907	90	1	1.06667	0.977778;
	192	1	9.9	-0	0	0	1	1.05772429	-20.6421751	63	1	1.07937	0.920635;
	193	1	0.1	0.7	0	0	1	1.04211754	-29.6167516	225	1	1.08889	1.00444;
	194	2	0.7	-1.6	0	0	1	1.056	-24.8084248	63	1	1.07937	0.920635;
	195	1	0	0	0	0	1	1.0450331	-32.4605615	63	1	1.06362	0.952381;
	196	1	0	0	0	0	1	1.04503452	-32.460604	63	1	1.06362	0.952381;
	197	1	27.5	-0.6	0	15	1	1.0141897	-32.2451924	63	1	1.07937	0.920635;
	198	1	11.1	-0.8	0	0	1	1.02001475	-23.0392125	63	1	1.07937	0.920635;
	199	1	12.6	2.7	0	0	1	1.01797065	-48.3616102	90	1	1.06667	0.977778;
	200	1	0	0	0	0	1	1.08350695	-23.092176	225	1	1.08889	1;
	201	1	81	25.6	0	0	1	1.03251802	-21.0261708	225	1	1.08889	0.888889;
	202	1	49.8	2	0	0	1	0.98924488	-31.9140237	63	1	1.06349	0.968254;
	203	1	28.6	3.7	0	0	1	1.0538609	-21.262209	90	1	1.1	0.944444;
	204	1	0	0	0	0	1	1.06275277	-17.6321089	225	1	1.08889	0.968889;
	205	1	0	0	0	0	1	1.0806262	-13.9262236	380	1	1.10526	1;
	206	1	54.4	9.9	0	0	1	1.00099391	-29.1082641	63	1	1.06349	0.968254;
	207	1	33.9	4.5	0	0	1	0.998775541	-14.4398208	63	1	1.06349	0.968254;
	208	1	16.6	-0.8	0	0	1	1.02994044	-31.4348495	90	1	1.07778	0.977778;
	209	1	2.2	1.1	0	0	1	1.01773286	-21.6895086	63	1	1.06349	0.968254;
	210	1	41.5	6.3	0	0	1	1.001334	-18.0189521	63	1	1.06349	0.968254;
	211	1	32.5	14	0	0	1	1.00125822	-17.8810358	63	1	1.06349	0.968254;
	212	1	0	0	0	0	1	1.04607441	-17.8137055	225	1	1.08444	1.00889;
	213	1	0	0	0	0	1	1.04596506	-17.8012714	225	1	1.08444	1.00889;
	214	1	43.1	4.5	0	30.4	1	1.04653378	-40.8987094	90	1	1.07778	0.977778;
	215	1	0	0	0	0	1	1.04875608	-36.7613791	225	1	1.08889	1.00444;
	216	1	21.1	-3.5	0	0	1	0.997442753	-21.0728377	63	1	1.06349	0.952381;
	217	1	31.1	2.7	0	0	1	1.00529548	-36.5328724	90	1	1.06667	0.977778;
	218	1	3.3	-0.4	0	0	1	1.03181198	-22.2883585	90	1	1.06667	0.977778;
	219	1	11.1	-4.9	0	0	1	1.04725993	-32.6044895	90	1	1.06667	0.977778;
	220	1	14.8	3.5	0	0	1	1.02306231	-4.31170672	63	1	1.07937	0.952381;
	221	1	13	-6.8	0	0	1	1.03523913	-20.2744684	63	1	1.06349	0.936508;
	222	1	0	0	0	0	1	1.08673421	-16.9442728	225	1	1.08975	0.933333;
	223	1	42.4	2.2	0	0	1	1.02240022	-26.5436877	63	1	1.07937	0.920635;
	224	2	0	0	0	0	1	1.09903379	-16.9533877	150	1	1.1	0.9;
	225	1	76.8	16.6	0	0	1	1.05365557	-17.4986186	225	1	1.08444	1.00889;
	226	1	77.8	71.5	0	0	1	1.05277673	-17.4905818	225	1	1.08444	1.00889;
	227	1	5	-1.9	0	0	1	1.00523468	-65.4085842	63	1	1.06349	0.952381;
	228	1	10.9	-2	0	0	1	1.0011292	-65.9537359	63	1	1.06349	0.952381;
	229	1	12	-5	0	0	1	1.06036427	-21.1310968	63	1	1.07937	0.920635;
	230	1	0	0	0	0	1	1.05409261	-17.7133514	225	1	1.08889	0.977778;
	231	1	7	-1.4	0	0	1	1.02159822	-33.7929454	90	1	1.06667	0.977778;
	232	1	7.2	0.1	0	0	1	1.02185177	-17.6540322	90	1	1.08889	0.933333;
	233	1	0	0	0	0	1	1.05491928	-20.2117896	20	1	1.15	0.8;
	234	1	24.7	8.1	0	0	1	1.05491928	-20.2117896	90	1	1.08889	0.933333;
	235	1	17.7	3.3	0	0	1	1.06350414	-16.5316962	225	1	1.08889	0.888889;
	236	1	28.6	1	0	0	1	1.03161392	-28.896997	90	1	1.07778	0.922222;
	237	1	43.7	5.2	0	0	1	1.04264709	-12.5647275	63	1	1.06349	0.936508;
	238	1	25.2	-1.7	0	0	1	1.03097544	-33.3196315	90	1	1.06667	0.977778;
	239	1	53.9	4.3	0	0	1	1.0254186	-66.5625027	63	1	1.06349	0.952381;
	240	1	51.1	9.5	0	0	1	1.03816745	-26.0387966	63	1	1.07937	0.920635;
	241	1	56.7	9.4	0	0	1	1.00826142	-27.6942275	90	1	1.07778	0.922222;
	242	1	56.2	8.6	0	0	1	0.991669358	-28.3393625	63	1	1.06349	0.968254;
	243	1	26.7	-2.3	0	0	1	1.01698326	-28.6224163	63	1	1.07937	0.920635;
	244	1	58	3.7	0	0	1	1.05013828	-18.1166005	90	1	1.07778	0.922222;
	245	1	13.7	-2.2	0	0	1	1.0229306	-30.1899411	63	1	1.07937	0.920635;
	246	2	13.7	7.5	0	0	1	1.02438367	-5.95845046	63	1	1.06349	0.936508;
	247	1	0	0	0	0	1	1.05496602	-4.10290117	225	1	1.08889	0.933333;
	248	1	33.4	13.1	0	0	1	1.05387909	-30.1240036	225	1	1.08889	1.00444;
	249	1	26.1	0.9	0	0	1	1.03362507	-28.3190117	63	1	1.07937	0.920635;
	250	1	27.4	-9.4	0	0	1	1.0019054	-26.4862118	63	1	1.07937	0.952381;
	251	1	10.6	3.5	0	0	1	1.0267786	-40.1051006	90	1	1.06667	0.977778;
	252	1	9.6	-1.8	0	0	1	1.02300373	-29.2051309	90	1	1.06667	0.977778;
	253	1	54.1	5.3	0	0	1	1.02223066	-24.1210237	63	1	1.07937	0.952381;
	254	1	20	1.9	0	0	1	1.02424846	-23.8650622	63	1	1.07937	0.952381;
	255	1	9.5	-0.2	0	0	1	1.02114981	-22.7265748	63	1	1.06349	0.936508;
	256	2	1.8	0	0	0	1	1.047	-22.480992	63	1	1.07937	0.920635;
	257	1	0	0	0	0	1	1.08045932	-23.1943667	225	1	1.08889	1;
	258	2	-0	0	0	0	1	1.078	-13.9319145	90	1	1.07778	0.922222;
	259	1	33	-2.2	0	0	1	1.03119988	-21.9926111	63	1	1.07937	0.952381;
	260	1	0	0	0	0	1	1.06065358	-19.7152158	225	1	1.08889	0.986667;
	261	2	0	0	0	0	1	1.04201919	-28.9359591	63	1	1.07937	0.920635;
	262	1	0	0	0	80	1	1.05231276	-17.882437	225	1	1.08889	0.888889;
	263	1	0	0	0	0	1	1.03792888	-19.8807008	225	1	1.08889	0.888889;
	264	1	0	0	0	0	1	1.05275574	-13.9074561	380	1	1.10526	1.01316;
	265	1	0	0	0	0	1	0.984196219	-34.2311004	63	1	1.04762	0.952381;
	266	1	32.5	7.6	0	0	1	1.04926203	-30.2671936	225	1	1.08889	1.00444;
	267	1	66.3	12.7	0	0	1	1.03429811	-31.8956653	225	1	1.08889	1.00444;
	268	1	12.2	10.9	0	0	1	0.997039702	-20.3034079	63	1	1.07937	0.920635;
	269	1	23.2	1.1	0	0	1	1.00603616	-31.7016721	63	1	1.07937	0.920635;
	270	1	0	0	0	0	1	1.04272832	-12.4479327	225	1	1.08889	0.977778;
	271	1	0	0	0	0	1	1.04288704	-12.4485478	225	1	1.08889	0.977778;
	272	1	45.8	4.3	0	0	1	1.02142207	-17.9607493	63	1	1.06349	0.968254;
	273	1	28.5	3.5	0	0	1	1.03965058	-13.3145543	225	1	1.08444	1.00889;
	274	1	54.5	9.1	0	0	1	1.05673733	-26.4631545	90	1	1.1	0.944444;
	275	1	0	0	0	0	1	1.06980247	-31.5017955	225	1	1.08444	1.00444;
	276	1	0	0	0	0	1	1.08670873	-25.4811688	380	1	1.10263	1.04211;
	277	1	3.7	2.3	0	0	1	1.03945776	-34.5071877	90	1	1.06667	0.977778;
	278	1	1.5	4.6	0	0	1	1.06948193	-31.5610822	225	1	1.08444	1.00444;
	279	1	11	-2.1	0	0	1	1.01875746	-23.866064	63	1	1.06349	0.936508;
	280	1	44	14.3	0	0	1	1.03135054	-41.13262	90	1	1.07778	0.977778;
	281	1	12.8	0.9	0	0	1	1.00611835	-19.8438332	63	1	1.07937	0.952381;
	282	2	0	0	0	0	1	1.02438417	-5.95846201	63	1	1.06349	0.936508;
	283	1	12.1	-0.2	0	0	1	1.0221035	-42.1640855	90	1	1.06667	0.977778;
	284	1	16.8	4.6	0	0	1	1.01582133	-3.21974946	63	1	1.07937	0.952381;
	285	1	-1.7	4.6	0	0	1	1.05612354	-29.681294	225	1	1.08889	1.00444;
	286	1	32.2	20.5	0	0	1	1.05593847	-29.6968177	225	1	1.08889	1.00444;
	287	1	35.7	-2.3	0	0	1	1.03197788	-30.3932038	90	1	1.06667	0.977778;
	288	1	36.8	-2.8	0	0	1	1.03719437	-35.8294852	90	1	1.06667	0.977778;
	289	1	43.6	9.7	0	0	1	1.06976394	-4.09862461	225	1	1.08889	0.888889;
	290	1	7.3	3.7	0	0	1	1.05961349	-19.0664292	90	1	1.11111	0.955556;
	291	1	15.8	0.3	0	0	1	1.02249417	-26.2118039	63	1	1.07937	0.920635;
	292	1	1	0.5	0	0	1	1.02874605	-14.4266215	63	1	1.06349	0.936508;
	293	1	45.4	2.3	0	0	1	1.02880214	-14.4233739	63	1	1.06349	0.936508;
	294	1	0	-0.9	0	0	1	1.02778612	-15.982115	63	1	1.07937	0.952381;
	295	1	23.4	4.5	0	0	1	1.04223267	-21.8796124	225	1	1.08889	0.888889;
	296	1	6.9	0.3	0	0	1	1.00683224	-21.9613166	63	1	1.07937	0.952381;
	297	1	2	-0.5	0	0	1	0.9983637	-22.1202927	63	1	1.06349	0.936508;
	298	1	13.9	-0	0	0	1	0.996721512	-9.3744994	63	1	1.06349	0.936508;
	299	1	0	0.1	0	0	1	1.05742607	-19.1233537	90	1	1.11111	0.955556;
	300	1	53.5	16.6	0	0	1	1.06193559	-16.3639152	225	1	1.08889	0.888889;
	301	1	3	0.3	0	0	1	0.997349587	-15.101472	63	1	1.06349	0.968254;
	302	1	16.3	3.5	0	0	1	1.02887239	-13.6115873	63	1	1.06349	0.936508;
	303	1	42.3	12	0	0	1	0.985646874	-35.0294199	63	1	1.07937	0.920635;
	304	1	36.7	-0.5	0	0	1	0.994904716	-26.0408415	63	1	1.06349	0.968254;
	305	2	0	0	0	0	1	1.04954414	-18.1446537	63	1	1.06349	0.936508;
	306	1	14.5	-1.1	0	0	1	1.00617026	-20.1404288	63	1	1.07937	0.952381;
	307	1	21.4	-2.4	0	0	1	1.00032043	-49.2069197	90	1	1.06667	0.977778;
	308	1	0.6	0.2	0	0	1	1.0429675	-26.8508089	63	1	1.07937	0.920635;
	309	1	7	2.5	0	0	1	1.02998574	-31.482602	63	1	1.06349	0.968254;
	310	1	13	4.5	0	0	1	1.03013699	-31.5125213	63	1	1.06349	0.968254;
	311	1	1.3	-0	0	0	1	0.993342121	-36.1370655	90	1	1.06667	0.977778;
	312	1	2	-2.6	0	0	1	1.01013445	-14.845692	90	1	1.07778	0.922222;
	313	1	32	2.4	0	0	1	1.0357065	-25.1160121	63	1	1.07937	0.920635;
	314	1	0	0	0	0	1	1.06771956	-21.2359963	225	1	1.08889	1;
	315	1	21.5	-0.1	0	0	1	1.06148934	-33.2723882	90	1	1.07778	0.977778;
	316	1	35.3	2.4	0	0	1	1.02357892	-28.4746323	63	1	1.07937	0.920635;
	317	2	0	0	0	0	1	1.05741266	-21.3578813	63	1	1.07937	0.920635;
	318	1	13.7	4.8	0	0	1	1.0034781	-33.2624718	63	1	1.04762	0.952381;
	319	2	0	0	0	0	1	1.03837137	-27.3667593	63	1	1.07937	0.920635;
	320	1	36.6	2.7	0	0	1	1.04390395	-24.2969688	90	1	1.1	0.944444;
	321	1	0	0	0	0	1	1.04624247	-25.0188354	63	1	1.07937	0.920635;
	322	1	0	0	0	0	1	1.03532593	-14.8171267	225	1	1.08889	1;
	323	1	0	0	0	0	1	1.07367958	-14.7701267	380	1	1.10526	1.05232;
	324	1	28.5	5.3	0	0	1	1.02359078	-10.0972287	63	1	1.06349	0.936508;
	325	2	18	9.6	0	0	1	1.02932058	-15.4648216	63	1	1.06349	0.936508;
	326	1	11.7	19.8	0	0	1	1.03782877	-22.030117	63	1	1.07937	0.920635;
	327	1	0	0	0	0	1	1.04466601	-18.6697329	225	1	1.08889	1;
	328	1	39.4	2.5	0	0	1	1.01931425	-24.1347758	63	1	1.07937	0.920635;
	329	1	74.3	5.1	0	0	1	1.05207993	-24.9440201	90	1	1.1	0.944444;
	330	1	84.5	7.7	0	0	1	1.05178827	-26.0751487	63	1	1.07937	0.920635;
	331	1	0	0	0	0	1	1.0676449	-21.633252	225	1	1.08889	1;
	332	2	9.2	-0.9	0	0	1	1.03569192	-35.2466426	63	1	1.06349	0.968254;
	333	2	0	0	0	0	1	1.04743343	-27.5673573	150	1	1.08	0.966667;
	334	1	7.4	-2.8	0	0	1	1.03844267	-62.2648321	63	1	1.06349	0.952381;
	335	1	3	-3	0	0	1	1.0290222	-20.606774	63	1	1.06349	0.936508;
	336	2	0.7	0	0	0	1	1.023	-23.1366301	63	1	1.07937	0.920635;
	337	1	13.6	-1.2	0	0	1	1.04687756	-27.7585081	63	1	1.07937	0.920635;
	338	2	0	0	0	0	1	1.06489248	-23.2690968	63	1	1.07937	0.920635;
	339	1	17.8	1.1	0	0	1	1.02958526	-26.4448977	63	1	1.07937	0.920635;
	340	1	25.2	1	0	0	1	1.04282869	-31.878817	90	1	1.06667	0.977778;
	341	1	7.7	-10.7	0	0	1	1.06978734	-25.1332997	63	1	1.07937	0.920635;
	342	1	13.8	-1.9	0	0	1	1.01623618	-17.6994392	63	1	1.07937	0.952381;
	343	1	0	0	0	0	1	1.02366689	-14.7195373	225	1	1.08889	0.986667;
	344	1	11.5	-3.5	0	0	1	1.00516117	-16.3071742	63	1	1.06349	0.968254;
	345	1	23.4	-5.5	0	0	1	1.02445107	-31.7690629	90	1	1.07778	0.977778;
	346	1	13.1	-0.3	0	0	1	1.06283817	-8.53301908	225	1	1.08444	1.00889;
	347	1	-0.7	0.1	0	0	1	1.03475244	-31.8667454	63	1	1.06349	0.968254;
	348	1	53.9	6.8	0	0	1	1.04470359	-28.2715195	90	1	1.1	0.944444;
	349	1	0	0	0	0	1	1.09052675	-17.4811733	380	1	1.10526	1.04211;
	350	1	0	0	0	0	1	1.09028231	-17.4755834	380	1	1.10526	1.04211;
	351	1	36	2.6	0	0	1	1.07337894	-19.732709	225	1	1.08889	1;
	352	1	5.8	2	0	0	1	1.05499183	-32.6260701	225	1	1.08889	1.00444;
	353	1	34	-10.2	0	0	1	0.999856824	-35.392568	63	1	1.04762	0.952381;
	354	1	2.5	1.2	0	0	1	1.03014013	-19.3912013	63	1	1.07937	0.920635;
	355	1	3	-1.9	0	0	1	1.03765517	-13.7940577	63	1	1.07937	0.920635;
	356	1	6	2	0	0	1	1.01766205	-25.5920789	63	1	1.07937	0.920635;
	357	1	14.7	2.4	0	0	1	0.994050001	-18.3361942	63	1	1.07937	0.952381;
	358	1	23.9	10.1	0	0	1	1.01809739	-25.5630865	63	1	1.07937	0.920635;
	359	1	35.3	3	0	0	1	1.01010544	-27.1256562	63	1	1.06349	0.968254;
	360	1	54.9	5.6	0	19	1	1.04521436	-25.1488551	63	1	1.07937	0.920635;
	361	1	0	0	0	0	1	1.0747394	-21.1239661	150	1	1.1	0.9;
	362	1	0	0	0	0	1	1.07361906	-19.9015692	225	1	1.08889	1;
	363	1	10	4	0	0	1	1.05981748	-23.8424745	90	1	1.08889	0.933333;
	364	2	-3	0	0	0	1	1.035	-31.7697627	225	1	1.08889	1.00444;
	365	1	-0.1	-0.4	0	0	1	1.04032727	-10.5400452	63	1	1.06349	0.936508;
	366	1	0	0	0	0	1	1.05471202	-6.84158263	225	1	1.08889	0.933333;
	367	1	0	0	0	0	1	1.07570137	-5.24351668	380	1	1.10526	1.03947;
	368	1	0	0	0	0	1	1.0714801	-6.20662022	380	1	1.10526	1.03947;
	369	1	0	0	0	0	1	1.06735269	-34.5876905	225	1	1.08889	1.00444;
	370	1	60	14.2	0	0	1	1.01762064	-32.594073	225	1	1.08889	1.00444;
	371	1	12	2.6	0	0	1	1.01112712	-4.31364094	63	1	1.07937	0.952381;
	372	1	0	0	0	0	1	1.04405704	-6.1323898	225	1	1.08889	0.986667;
	373	1	24.9	7.3	0	0	1	1.06718223	-34.6023651	225	1	1.08889	1.00444;
	374	1	25.7	3.1	0	0	1	0.989951875	-64.188326	63	1	1.06349	0.952381;
	375	1	17	0	0	0	1	1.012995	-42.9276039	90	1	1.06667	0.977778;
	376	1	54.3	-0.4	0	0	1	1.02323947	-49.4887777	63	1	1.06349	0.952381;
	377	1	6	2.3	0	0	1	0.999114277	-16.2615601	63	1	1.07937	0.952381;
	378	1	27.5	-0.1	0	0	1	1.0374685	-19.5696458	63	1	1.06349	0.936508;
	379	1	0	0	0	0	1	1.0476369	-14.7587915	225	1	1.08889	0.933333;
	380	1	0	0	0	0	1	1.07099961	-11.900282	380	1	1.10526	1.03947;
	381	1	52.7	7.3	0	0	1	1.01595944	-39.690392	90	1	1.07778	0.977778;
	382	1	17.3	0.6	0	0	1	1.01403381	-9.96607612	63	1	1.07937	0.952381;
	383	1	43.9	15.4	0	0	1	1.02159916	-19.8638231	63	1	1.07937	0.920635;
	384	1	20.1	3.9	0	0	1	1.00036749	-31.6253794	63	1	1.07937	0.920635;
	385	1	18.9	10.3	0	0	1	1.02049765	-8.72170342	63	1	1.07937	0.920635;
	386	1	45.9	9	0	0	1	1.07513613	-19.6881555	225	1	1.08889	1;
	387	1	5.4	-2.5	0	0	1	1.05914312	-17.0602279	90	1	1.07778	0.922222;
	388	1	44.8	0.3	0	0	1	1.04421346	-26.4405775	90	1	1.1	0.944444;
	389	1	29	1.6	0	0	1	1.03633893	-17.1599226	63	1	1.06349	0.936508;
	390	1	0.8	0.3	0	0	1	1.02162937	-17.9110711	63	1	1.06349	0.968254;
	391	1	24.5	-4.9	0	0	1	1.03055102	-24.4328262	63	1	1.07937	0.920635;
	392	1	29.6	1.6	0	0	1	0.998611608	-29.9051234	63	1	1.06349	0.968254;
	393	1	6	0.1	0	0	1	1.0262156	-19.8286851	63	1	1.07937	0.952381;
	394	1	6	2	0	0	1	1.03274712	-25.1240449	63	1	1.07937	0.920635;
	395	1	44.1	4.4	0	0	1	1.03284961	-25.1178183	63	1	1.07937	0.920635;
	396	1	0	0	0	0	1	1.04268437	-8.98161405	63	1	1.07937	0.952381;
	397	1	13	-2.4	0	0	1	1.03212539	-28.3146997	63	1	1.07937	0.920635;
	398	1	6.7	2.2	0	0	1	1.02275202	-42.0482757	90	1	1.06667	0.977778;
	399	1	0.8	2.2	0	0	1	1.07475522	-20.1635124	63	1	1.07937	0.920635;
	400	1	20.2	-1.8	0	0	1	1.03835387	-26.4639054	63	1	1.07937	0.920635;
	401	1	5	0.1	0	0	1	1.03411307	-20.0719947	63	1	1.06349	0.936508;
	402	1	22.4	-1.9	0	0	1	1.01504217	-30.567527	90	1	1.07778	0.922222;
	403	1	24.2	5.2	0	0	1	1.03276274	-13.002357	63	1	1.06349	0.936508;
	404	1	32	10.5	0	0	1	1.04141919	-15.9334843	63	1	1.06349	0.936508;
	405	1	6	4.1	0	0	1	1.01627903	-17.973936	63	1	1.06349	0.936508;
	406	1	60.7	3.4	0	0	1	1.01746924	-31.3715206	90	1	1.06667	0.977778;
	407	1	1.5	0.2	0	0	1	1.02819101	-37.1819112	90	1	1.06667	0.977778;
	408	1	13.8	-4.2	0	0	1	1.05328366	-33.3457637	63	1	1.07937	0.920635;
	409	2	0	0	0	0	1	1.02988277	-28.0643599	63	1	1.06349	0.968254;
	410	1	21	1.1	0	0	1	1.02246983	-45.2162666	90	1	1.06667	0.977778;
	411	1	17.8	-3.4	0	0	1	1.02447567	-35.5912862	90	1	1.06667	0.977778;
	412	1	24.7	-11.1	0	0	1	1.0131162	-11.8578858	63	1	1.07937	0.952381;
	413	1	29	-1.7	0	0	1	1.03043666	-62.6294267	63	1	1.06349	0.952381;
	414	1	-0.4	0.1	0	0	1	1.00302473	-19.5871377	63	1	1.06349	0.936508;
	415	1	10.5	-1	0	0	1	1.01885738	-24.6192293	63	1	1.07937	0.952381;
	416	1	67.6	14.6	0	0	1	1.04459244	-33.790793	225	1	1.08889	1.00444;
	417	1	18.2	5.4	0	0	1	1.03154697	-31.7439115	63	1	1.07937	0.920635;
	418	1	10	3.6	0	0	1	1.00923689	-31.9189114	63	1	1.04762	0.952381;
	419	1	29.8	7.5	0	0	1	1.04549306	-32.6548335	63	1	1.07937	0.920635;
	420	1	-4.2	-1.3	0	0	1	1.0491312	-32.2179712	63	1	1.07937	0.920635;
	421	1	0	0	0	0	1	1.01511918	-37.5248257	63	1	1.06349	0.968254;
	422	1	0	0	0	0	1	1.06178004	-20.7081048	63	1	1.07937	0.920635;
	423	1	0	0	0	0	1	1.08389686	-17.8250129	225	1	1.08889	1;
	424	1	0	0	0	0	1	1.03179575	-6.62389331	63	1	1.07937	0.952381;
	425	1	0	0	0	0	1	1.06490897	-3.07833969	225	1	1.08889	0.986667;
	426	1	0	0	0	0	1	1.00798869	-33.2280267	63	1	1.04762	0.952381;
	427	1	0.3	-0.2	0	0	1	1.02896084	-10.8246043	63	1	1.06349	0.936508;
	428	1	4	-1	0	0	1	1.02960738	-54.6127718	63	1	1.06349	0.952381;
	429	1	58.6	6.9	0	0	1	1.02652892	-21.4473868	63	1	1.06349	0.968254;
	430	1	117.3	33.8	0	0	1	1.05972417	-31.1597091	225	1	1.08889	1.00444;
	431	1	13	1.1	0	0	1	1.04880029	-23.5118127	63	1	1.07937	0.920635;
	432	1	26	-2.4	0	0	1	1.02493533	-40.9603618	63	1	1.07937	0.920635;
	433	1	3.5	3.3	0	0	1	0.99179827	-33.9368242	63	1	1.04762	0.952381;
	434	1	14	-4.8	0	0	1	1.01464219	-15.4782036	63	1	1.06349	0.936508;
	435	1	37.4	3.5	0	0	1	1.02952882	-31.0035246	90	1	1.07778	0.922222;