function mpc = case1951rte
%CASE1951RTE  AC Power flow data for French system.
%   Please see CASEFORMAT for details on the case file format.
%
%   This case accurately represents the size and complexity of French
%   very high voltage transmission network.
%   Part of this data was sampled in the offline platform of iTesla.
%   These data can be used to validate mathematical methods and tools.
%   These data should NOT be used for operation
%   nor planning of the French or European grids.
%
%   When publishing results based on this data, please cite:
%
%     C. Josz, S. Fliscounakis, J. Maeght, and P. Panciatici, "AC Power Flow
%     Data in MATPOWER and QCQP Format: iTesla, RTE Snapshots, and PEGASE"
%     http://arxiv.org/abs/1603.01533
%
%   Contacts:
%     Cédric Josz, Stéphane Fliscounakis, Jean Maeght, Patrick Panciatici
%     firstname.lastname@rte-france.com
%     Réseau de Transport d'Electricité (French Transmission System Operator)
%     Département Expertise Système, Immeuble "Le Colbert"
%     9 rue de la Porte de Buc, 78000 Versailles Cedex, France
%
%   March 3rd, 2016

%   MATPOWER
%   Copyright (c) 2016 by Cédric Josz, Stéphane Fliscounakis, Jean Maeght,
%   and Patrick Panciatici
%   Licensed under the Creative Commons Attribution 4.0 International license,
%   http://creativecommons.org/licenses/by/4.0/

%% MATPOWER Case Format : Version 2
mpc.version = '2';

%%-----  Power Flow Data  -----%%
%% system MVA base
mpc.baseMVA = 100;

%% bus data
%	bus_i	type	Pd	Qd	Gs	Bs	area	Vm	Va	baseKV	zone	Vmax	Vmin
mpc.bus = [
	1	1	36.4	19.5	0	0	1	1.04156438	-18.7605322	225	1	1.08889	0.888889;
	2	1	0	0	0	0	1	1.08106794	-5.18369103	380	1	1.10263	1.04841;
	3	1	245.2	16.4	0	0	1	1.0656352	-23.6250868	225	1	1.08444	1.00444;
	4	1	0	0	0	0	1	1.07515462	-8.37850762	150	1	1.10667	0.9;
	5	1	51.8	13.5	0	0	1	1.07006503	-11.708988	225	1	1.08889	0.933333;
	6	1	36.6	11.6	0	0	1	1.06761706	-12.7555868	225	1	1.08889	0.933333;
	7	1	0	0	0	0	1	1.08498144	-10.6561462	380	1	1.10526	1.03947;
	8	1	0	0	0	0	1	1.08034677	-12.0089294	380	1	1.10526	1.03947;
	9	1	0	0	0	0	1	1.07715395	-28.5404943	225	1	1.09035	1.00444;
	10	1	193.4	48.9	0	0	1	1.03576701	-15.9359498	225	1	1.08889	0.933333;
	11	1	57.7	14.6	0	0	1	1.06282947	-29.531373	225	1	1.08889	1.00444;
	12	1	27.8	24.4	0	0	1	1.07585852	-25.1250922	225	1	1.08889	1.00444;
	13	1	177.5	52.5	0	0	1	1.06261654	-29.5333165	225	1	1.08889	1.00444;
	14	1	75.8	7.3	0	0	1	1.05844345	-15.7274267	225	1	1.08252	0.95;
	15	1	0	0	0	0	1	1.08790993	-14.1190989	225	1	1.08889	1.00444;
	16	1	0	0	0	0	1	1.08791035	-14.1191018	225	1	1.08889	1.00444;
	17	1	66.2	0.9	0	0	1	1.05909858	-15.6001731	225	1	1.08889	0.888889;
	18	1	12.3	7.1	0	0	1	1.07270734	-3.32993923	225	1	1.09633	0.986667;
	19	1	67.9	23	0	0	1	1.04710477	-26.5178114	225	1	1.08889	1.00444;
	20	1	29.2	7.2	0	0	1	1.04717004	-26.5150054	225	1	1.08889	1.00444;
	21	1	77.8	31.2	0	0	1	1.06072447	-26.4664782	225	1	1.08889	1.00444;
	22	1	105.6	22.8	0	0	1	1.04639908	-11.4421501	225	1	1.08889	0.986667;
	23	1	41.1	2.7	0	0	1	1.04575021	-15.6103279	225	1	1.08889	0.888889;
	25	1	56.2	8.1	0	0	1	1.05831954	-29.2376787	225	1	1.08444	1.00889;
	26	1	29.3	6.4	0	0	1	1.05865407	-29.1899598	225	1	1.08444	1.00889;
	27	1	102.1	38	0	0	1	1.04967389	-14.6525594	225	1	1.08889	0.933333;
	28	1	172.1	40	0	0	1	1.06569731	-25.8734958	225	1	1.08889	1.00444;
	29	1	0	0	0	0	1	1.08115206	-5.17192727	380	1	1.10526	1.04842;
	30	1	0	0	0	0	1	1.08119505	-5.17597093	380	1	1.10526	1.04842;
	31	1	36.2	31.7	0	0	1	1.0636679	-10.0261516	225	1	1.08444	1.00889;
	33	1	133.2	20.1	0	0	1	1.06618321	-17.6807489	225	1	1.08444	1.00889;
	34	1	89.4	29.6	0	0	1	1.02444176	-27.4213197	225	1	1.08889	1.00444;
	2013	1	0	0	0	0	1	1.06403148	-29.3493165	225	1	1.08889	1.00444;
	35	1	10.3	-0.4	0	0	1	1.06610649	-14.1519555	150	1	1.08	0.966667;
	36	1	22.3	6.7	0	80	1	1.04297751	-21.0626539	225	1	1.09212	1;
	37	1	0	0	0	0	1	1.05139194	-17.7697503	380	1	1.10526	1.04785;
	38	1	144.2	18.9	0	0	1	1.01387729	-15.7527596	225	1	1.08889	0.986667;
	39	1	117.8	31.5	0	0	1	1.06019205	-15.3961898	225	1	1.08889	0.968889;
	40	1	194.8	53.6	0	0	1	1.0769765	-12.2197115	380	1	1.10526	1;
	41	1	64.7	12.6	0	0	1	1.05178141	-14.098502	225	1	1.08889	0.933333;
	42	1	44.6	15.6	0	0	1	1.05630889	-13.9328223	225	1	1.08889	0.888889;
	43	1	46.9	11.7	0	0	1	1.05646065	-13.9381507	225	1	1.08889	0.888889;
	44	1	381.3	62.5	0	0	1	1.06911964	-32.0998433	225	1	1.08496	1.00444;
	45	1	161.5	-38.5	0	0	1	1.06614528	-28.5768462	225	1	1.08889	1.00444;
	46	2	0	0	0	0	1	1.107	-18.072141	150	1	1.10843	0.9;
	47	1	0	0	0	0	1	1.05354741	-26.6612924	225	1	1.08889	1.00444;
	48	1	0	0	0	0	1	1.05354719	-26.6612912	225	1	1.08889	1.00444;
	49	1	123.5	43.4	0	0	1	1.05354593	-26.6612843	225	1	1.08889	1.00444;
	50	1	10	3.7	0	0	1	1.06578335	-26.4434558	225	1	1.08889	1.00444;
	51	1	0	0	0	0	1	1.05746282	-20.4854434	225	1	1.08889	1;
	52	1	74.6	28	0	0	1	1.04135352	-16.3222847	225	1	1.08889	0.888889;
	53	1	160.2	38.2	0	0	1	1.06973141	-8.50140014	225	1	1.08889	0.968889;
	54	1	0	0	0	0	1	1.08890401	-4.64227747	380	1	1.10526	1;
	55	1	31	11	0	0	1	1.06407623	-16.1231815	225	1	1.08444	1.00889;
	56	1	14.7	-1	0	0	1	1.06440602	-16.1076063	225	1	1.08444	1.00889;
	1827	1	201.2	11.7	0	0	1	1.05483935	-31.002001	225	1	1.08889	1.00444;
	57	1	57	3	0	0	1	1.0806565	-17.7415167	225	1	1.08945	0.933333;
	58	2	0	0	0	0	1	1.107	-18.193085	150	1	1.10862	0.9;
	59	1	55.4	19.7	0	0	1	1.07760874	-15.8021377	225	1	1.08444	1.00889;
	60	1	55.7	41.6	0	0	1	1.07726643	-15.7989856	225	1	1.08444	1.00889;
	61	1	0	0	0	0	1	1.0747733	-16.0337578	225	1	1.08889	0.977778;
	62	1	16.4	4.9	0	0	1	1.05699956	-13.1681928	225	1	1.08889	0.888889;
	63	1	1.6	12.7	0	0	1	1.07829683	-12.6395777	225	1	1.08889	0.933333;
	64	1	29.7	12	0	0	1	1.0744217	-25.4217122	225	1	1.08889	1.00444;
	65	1	54.7	13.6	0	0	1	1.07655969	-28.6287587	225	1	1.08889	1.00444;
	66	1	-21.9	-5.1	0	0	1	1.05838711	-20.6923406	225	1	1.08889	1;
	67	1	29.2	-2.5	0	0	1	1.07592569	-19.7532247	225	1	1.08889	0.986667;
	68	1	0	0	0	80	1	1.06446453	-13.7025347	225	1	1.08889	0.888889;
	69	1	0	0	0	0	1	1.04917902	-15.1066001	225	1	1.08889	0.888889;
	70	1	0	0	0	0	1	1.07332678	-10.103762	380	1	1.10526	1.01316;
	71	1	76.3	14.3	0	0	1	1.04641816	-26.7134126	225	1	1.08889	1.00444;
	72	1	29	5	0	0	1	1.06704471	-25.5768043	225	1	1.08889	1.00444;
	73	1	0	0	0	0	1	1.05515064	-11.3556645	225	1	1.08889	0.977778;
	74	1	0	0	0	0	1	1.05516063	-11.3549997	225	1	1.08889	0.977778;
	75	1	182.4	31.2	0	0	1	1.05235831	-12.1905831	225	1	1.08444	1.00889;
	76	1	0	0	0	0	1	1.07808736	-27.9048204	225	1	1.08444	1.00444;
	77	1	0	0	0	0	1	1.09685042	-21.8573699	380	1	1.10263	1.04211;
	78	1	116.1	17.6	0	0	1	1.07774646	-27.96428	225	1	1.08444	1.00444;
	79	1	-7.4	0.9	0	0	1	1.07687015	-24.9582836	225	1	1.08936	1.00444;
	80	1	14	12.6	0	0	1	1.07673646	-24.96856	225	1	1.08936	1.00444;
	81	1	48.7	2.9	0	0	1	1.08188741	-5.91721723	225	1	1.08889	0.888889;
	82	1	27.9	3.3	0	0	1	1.04945467	-16.20331	225	1	1.08124	0.95;
	83	1	61.9	19.7	0	0	1	1.0716185	-7.24635721	225	1	1.08889	0.888889;
	84	1	158.1	-16.5	0	0	1	1.034934	-22.1996272	225	1	1.08889	1;
	85	1	0	0	0	0	1	1.02554525	-16.8542205	225	1	1.08889	1;
	86	1	403.7	124.8	0	0	1	1.06351772	-16.7985481	380	1	1.10526	1.0507;
	87	1	108.6	44.4	0	0	1	1.03705627	-17.2941213	225	1	1.08889	1;
	88	1	140.7	36.8	0	0	1	1.05548392	-20.9611239	225	1	1.08889	1;
	89	2	0	0	0	0	1	1.042	-21.4174188	150	1	1.1	0.9;
	90	1	56.6	23.2	0	0	1	1.02869716	-17.4500518	225	1	1.08889	0.986667;
	91	1	12.5	6.1	0	0	1	1.06110535	-10.0110656	225	1	1.08444	1.00889;
	92	1	0	0	0	0	1	1.09628154	-10.2752898	380	1	1.10526	1.04211;
	93	1	0	0	0	0	1	1.09626652	-10.340859	380	1	1.10526	1.04211;
	96	1	12.7	0.6	0	0	1	1.03899906	-21.2493279	225	1	1.08889	1;
	97	1	18.3	11.1	0	0	1	1.05967534	-26.340449	225	1	1.08889	1.00444;
	98	1	90.8	9.6	0	0	1	1.08980899	-20.3391461	150	1	1.1	0.9;
	99	1	82.1	-2.6	0	0	1	1.06178937	-19.5760228	225	1	1.08889	1;
	100	2	1.3	0	0	0	1	1.047	-26.5626014	225	1	1.08294	0.95;
	101	1	0	0	0	0	1	1.06996351	-11.6033709	225	1	1.08889	0.933333;
	102	1	0	0	0	0	1	1.08055246	-11.9300387	380	1	1.10526	1.03947;
	103	1	0	0	0	0	1	1.08508578	-10.5926161	380	1	1.10526	1.03947;
	104	1	0	0	0	0	1	1.06318926	-29.5087399	225	1	1.08889	1.00444;
	1828	1	86.9	24.6	0	0	1	1.02240079	-27.6979378	225	1	1.08889	1.00444;
	105	1	0	0	0	0	1	1.01450076	-8.3217023	225	1	1.08889	0.986667;
	106	1	12.8	7.6	0	0	1	1.0630316	-29.5180192	225	1	1.08889	1.00444;
	107	1	150.1	27.1	0	0	1	1.05758647	-16.7313497	225	1	1.08889	0.933333;
	108	1	0	0	0	0	1	1.08771263	-13.0937463	380	1	1.10526	1.03947;
	109	1	32.1	-1.6	0	0	1	1.05221496	-19.4217549	225	1	1.08889	1;
	110	1	29.4	1.2	0	0	1	1.06427041	-27.6469799	225	1	1.08986	1.00444;
	111	1	131.9	2.8	0	0	1	1.04763532	-21.4392047	225	1	1.09612	1;
	112	1	174.9	55.6	0	0	1	1.04821999	-6.09889487	225	1	1.08889	0.986667;
	113	1	129.6	33.2	0	0	1	1.07717994	-28.5335703	225	1	1.09036	1.00444;
	114	1	245.6	120.6	0	0	1	1.03178823	-16.9927091	225	1	1.08889	0.924444;
	115	1	82.1	14.7	0	0	1	1.09231277	-2.05616396	225	1	1.09614	0.986667;
	117	1	0	0	0	0	1	1.09389537	-0.736208536	380	1	1.10526	1.03947;
	119	1	192	-29.8	0	0	1	1.06047317	-44.1201427	225	1	1.08444	1.00444;
	120	1	21.6	-16.9	0	0	1	1.06060073	-27.8034859	225	1	1.08444	1.00889;
	121	1	0	0	0	0	1	1.05482056	-24.8317459	380	1	1.10263	1.02895;
	122	1	-0.1	-4.2	0	0	1	1.05814282	-16.7377638	225	1	1.08889	0.933333;
	123	1	172.6	37.2	0	0	1	1.05310157	-14.5175799	225	1	1.08889	0.933333;
	124	1	31.9	29.8	0	0	1	0.985502684	-27.6805947	63	1	1.07937	0.920635;
	125	2	0	0	0	0	1	1.075	-11.1822707	225	1	1.07476	0.95;
	126	1	4.4	5.3	0	0	1	1.06254415	-12.6191896	225	1	1.09768	1;
	127	1	0	0	0	0	1	1.06165332	-12.4481019	380	1	1.10526	1.05263;
	128	1	0	0	0	0	1	1.06171209	-12.4449647	380	1	1.10526	1.05263;
	129	1	0	0	0	0	1	1.06171169	-12.4414276	380	1	1.10526	1.05263;
	130	1	0	0	0	0	1	1.06171591	-12.4569342	380	1	1.10526	1.05263;
	131	1	0	0	0	0	1	1.09281722	-1.93828436	225	1	1.09645	0.986667;
	132	1	0	0	0	0	1	1.09321091	-1.89406103	225	1	1.09645	0.986667;
	133	1	0	0	0	0	1	1.09428806	-0.660018481	380	1	1.10526	1.03947;
	134	1	123.5	26.5	0	0	1	1.04658623	-17.4078023	225	1	1.08889	0.968889;
	135	1	39.1	10.1	0	0	1	1.05841531	-29.1726294	225	1	1.08444	1.00889;
	136	1	4.4	-3.3	0	0	1	1.0929023	-14.4428309	380	1	1.10526	1.03947;
	137	1	166.9	46.7	0	0	1	1.06624388	-13.5936809	225	1	1.08889	0.933333;
	138	1	0	0	0	0	1	1.08828937	-8.66210604	380	1	1.10526	1.03947;
	140	1	202	20.2	0	0	1	1.06351924	-7.79387525	225	1	1.08444	1.00889;
	142	1	231.3	-18.3	0	0	1	1.06383645	-21.4009263	225	1	1.08444	1.00444;
	143	1	49.3	7.8	0	0	1	1.06497019	-14.3219682	225	1	1.08889	0.933333;
	144	1	40.6	10.3	0	0	1	1.06495666	-14.3218418	225	1	1.08889	0.933333;
	145	1	49.8	-6.2	0	0	1	1.0643289	-27.6335599	225	1	1.08952	1.00444;
	146	1	0	0	0	0	1	1.08425216	-15.6314329	225	1	1.09478	1;
	147	1	0	0	0	0	1	1.08425017	-15.631411	225	1	1.09478	1;
	148	1	68.7	4.5	0	0	1	1.03703861	-21.6794528	225	1	1.08889	1;
	149	1	30	-1.5	0	0	1	1.07013482	-22.6530178	225	1	1.08889	1.00444;
	150	1	52.2	3.9	0	0	1	1.05711849	-10.5337034	225	1	1.08444	1.00889;
	151	1	40.2	6.8	0	0	1	1.03024139	-22.9196088	225	1	1.08889	1;
	152	1	0	0	0	0	1	1.06766178	-18.9937986	225	1	1.08444	1.00889;
	153	1	0	0	0	0	1	1.06754722	-19.0037956	225	1	1.08444	1.00889;
	154	1	0	0	0	0	1	1.06827365	-13.7799283	225	1	1.08444	1.00889;
	155	1	0	0	0	0	1	1.0673204	-10.88961	380	1	1.10263	1.02895;
	156	1	165.9	38.2	0	0	1	1.07127045	-6.9727557	225	1	1.08889	0.888889;
	157	1	0	0	0	0	1	1.06255578	-12.6189505	225	1	1.09766	1;
	158	1	0	0	0	0	1	1.0616181	-12.5220373	380	1	1.10526	1.05263;
	159	1	37.1	-0.1	0	0	1	1.06931636	-20.6089851	225	1	1.08889	0.986667;
	160	1	17.9	14.6	0	0	1	1.05141863	-20.1476127	225	1	1.08889	1;
	161	1	0	0	0	0	1	1.06392624	-47.4453651	225	1	1.08444	1.00444;
	162	1	0	0	0	0	1	1.06392624	-47.4453651	225	1	1.08444	1.00444;
	163	1	0	0	0	0	1	1.0639337	-47.445562	225	1	1.08444	1.00444;
	164	1	96.9	-7.4	0	0	1	1.06392519	-47.4453374	225	1	1.08444	1.00444;
	165	1	0	0	0	0	1	1.04929635	-14.6824704	225	1	1.08889	0.933333;
	166	1	8.5	-5.2	0	0	1	1.05576074	-18.0294421	225	1	1.08889	0.986667;
	167	1	0	0	0	0	1	1.08003155	-15.527337	225	1	1.08941	1;
	168	1	0	0	0	0	1	1.10275103	-13.622405	380	1	1.10526	1.05263;
	169	2	0	0	0	0	1	1.065	-10.5301655	225	1	1.1	0.9;
	170	1	13	4	0	0	1	1.06378698	-14.2934056	150	1	1.08	0.966667;
	171	1	50.4	4.5	0	0	1	1.04775939	-26.3346047	225	1	1.08889	1.00444;
	172	1	0.4	0.6	0	0	1	1.04808518	-26.2519262	225	1	1.08889	1.00444;
	173	1	29.1	-7.9	0	0	1	1.07510823	-7.61404283	225	1	1.08889	0.888889;
	175	1	0	0	0	0	1	1.09067669	-15.1361249	225	1	1.09176	1;
	176	1	0	0	0	0	1	1.09066171	-15.1401773	225	1	1.09176	1;
	177	1	0	0	0	0	1	1.09066018	-15.1413961	225	1	1.09176	1;
	178	1	0	0	0	0	1	1.09066031	-15.1416313	225	1	1.09176	1;
	179	1	0	0	0	0	1	1.09067577	-15.1363915	225	1	1.09176	1;
	180	2	0	0	0	0	1	1.106	-12.5833249	380	1	1.10676	0.9;
	181	1	181.5	39.9	0	0	1	1.03045303	-22.8863773	225	1	1.08889	1;
	182	1	32	21.4	0	0	1	1.0335418	-7.53928529	225	1	1.08889	0.986667;
	183	1	0	0	0	0	1	1.10474299	-6.96501055	380	1	1.10526	1.03947;
	184	1	0	0	0	0	1	1.10478796	-6.86772685	380	1	1.10526	1.03947;
	185	1	0	0	0	0	1	1.10478098	-6.87115596	380	1	1.10526	1.03947;
	186	1	0	0	0	0	1	1.10468548	-6.97480017	380	1	1.10526	1.03947;
	187	1	65.9	23.3	0	0	1	1.04725791	-14.2700815	225	1	1.08889	0.924444;
	188	1	5.4	1.4	0	0	1	1.01804862	-15.7308514	225	1	1.08889	0.986667;
	189	1	101.7	-4.3	0	0	1	1.06134926	-37.4718026	225	1	1.08444	1.00444;
	190	1	-6.8	-0.2	0	0	1	1.1018436	-9.27082043	380	1	1.10263	1.04211;
	191	1	-5.3	-0	0	0	1	1.10183713	-9.28779269	380	1	1.10263	1.04211;
	192	1	0	0	0	0	1	1.04457932	-26.9908917	225	1	1.08889	1.00444;
	193	1	0	0	0	0	1	1.05681418	-11.7044815	225	1	1.08889	0.977778;
	194	1	0	0	0	0	1	1.05681418	-11.7044815	225	1	1.08889	0.977778;
	195	1	135.5	19.2	0	0	1	1.04445588	-18.3455179	225	1	1.08889	0.968889;
	196	1	0	0	0	0	1	1.04945382	-8.47850214	225	1	1.08889	0.933333;
	197	1	0	0	0	0	1	1.04837841	-8.84196539	225	1	1.08889	0.933333;
	198	1	98.9	26.5	0	0	1	1.05655618	-34.7827512	225	1	1.08444	1.00444;
	199	1	299.2	-25.2	0	0	1	1.06314451	-31.7654117	225	1	1.08444	1.00444;
	200	1	0	0	0	0	1	1.06563029	-14.4050668	225	1	1.08889	0.977778;
	201	1	0	0	0	0	1	1.0828913	-20.9372042	225	1	1.08444	1.00444;
	202	1	211.2	31	0	0	1	1.0412184	-18.996918	225	1	1.08889	0.951111;
	203	1	89.7	19.5	0	0	1	1.06684056	-25.4578425	225	1	1.08889	1.00444;
	204	1	92.2	26	0	0	1	1.01851424	-15.8861409	225	1	1.08889	0.986667;
	205	1	29.6	2.7	0	0	1	1.05412091	-28.4877683	225	1	1.08444	1.00889;
	206	1	0	0	0	0	1	1.05395541	-25.9419917	380	1	1.10263	1.02895;
	207	1	127	40.5	0	0	1	1.06659429	-25.7727336	225	1	1.08889	1.00444;
	1829	2	0	0	0	0	1	1.054	-14.5312125	225	1	1.07859	0.95;
	208	1	0	0	0	0	1	1.05398765	-14.5313087	225	1	1.08889	0.888889;
	209	1	310.2	64.5	0	80	1	1.06558651	-35.7528902	225	1	1.08444	1.00444;
	210	1	62.1	16.8	0	0	1	1.07489617	-3.00658863	225	1	1.09504	0.986667;
	211	1	91.9	12.1	0	0	1	1.06461909	-18.214533	225	1	1.08444	1.00889;
	212	1	26.8	-0.9	0	0	1	1.06610141	-17.6944986	225	1	1.08444	1.00889;
	213	1	133	16.9	0	0	1	1.04507366	-9.8410843	225	1	1.08889	0.933333;
	215	1	0	0	0	0	1	1.10121028	-3.39354807	380	1	1.10526	1.03947;
	216	1	95.1	16.3	0	0	1	1.0764596	-11.8569	380	1	1.10526	1.03947;
	217	1	0	0	0	0	1	1.04738603	-9.16213311	225	1	1.08889	0.933333;
	218	1	0	0	0	0	1	1.04637669	-9.4194555	225	1	1.08889	0.933333;
	219	1	34.4	10.1	0	0	1	1.07934033	-15.7554785	225	1	1.08444	1.00889;
	220	1	2.2	3.5	0	0	1	1.07954214	-15.7257034	225	1	1.08444	1.00889;
	221	1	-7.5	-7.3	0	0	1	1.06830212	-16.623864	225	1	1.08444	1.00889;
	222	1	85.2	17.1	0	0	1	1.06402631	-26.100705	225	1	1.08889	1.00444;
	223	1	38.1	1.2	0	0	1	1.06473471	-18.1605305	225	1	1.08444	1.00889;
	224	1	21.4	-2.1	0	0	1	1.06522684	-18.1177947	225	1	1.08444	1.00889;
	225	1	7	3.7	0	0	1	1.06410325	-13.6644633	150	1	1.10667	0.946667;
	1830	1	0	0	0	0	1	1.06263949	-45.1509106	225	1	1.08444	1.00444;
	226	1	0	0	0	0	1	1.06954303	-40.3991767	380	1	1.10263	1.04211;
	227	1	180.4	-2	0	0	1	1.05147747	-20.8369031	225	1	1.09795	1;
	228	1	0	0	0	0	1	1.05254256	-18.3700618	380	1	1.10526	1.05019;
	229	1	127.1	31	0	0	1	1.05723919	-13.7473308	225	1	1.08889	0.911111;
	230	1	0	0	0	0	1	1.08287776	-6.27826038	380	1	1.10526	1;
	231	1	44.4	13.2	0	0	1	1.06315718	-29.5130669	225	1	1.08889	1.00444;
	232	1	49	11.1	0	0	1	1.02251874	-27.6896069	225	1	1.08889	1.00444;
	233	1	23.8	0.4	0	0	1	1.07202501	-20.1321182	225	1	1.08889	0.986667;
	234	1	0.4	0.5	0	0	1	1.07222269	-20.0597312	225	1	1.08889	0.986667;
	235	1	4	1	0	0	1	1.0760528	-27.7650626	225	1	1.08889	1.00444;
	236	1	30.4	23.5	0	0	1	1.07517351	-27.800091	225	1	1.08889	1.00444;
	237	1	249.6	70	0	0	1	1.0348093	-24.9510478	225	1	1.08889	1.00444;
	238	1	0	0	0	0	1	1.04136587	-23.6231248	225	1	1.08889	1.00444;
	239	1	56.5	14.2	0	0	1	1.07259204	-29.0807319	225	1	1.08889	1.00444;
	240	1	58.6	15.7	0	0	1	1.07196572	-29.1273355	225	1	1.08889	1.00444;
	241	2	-50	0.8	0	0	1	1.00154573	-10.7298643	20	1	1.1	0.9;
	242	1	0	0	0	0	1	1.07135331	-16.6950607	150	1	1.08	0.966667;
	243	1	-9.2	0.5	0	0	1	1.11404735	5.65927157	380	1	1.11402	1.03947;
	244	1	28.9	24.3	0	0	1	1.11456506	3.69997152	380	1	1.11482	1.03947;
	245	1	18.2	8.4	0	0	1	1.11270337	5.40519808	380	1	1.11264	1.03947;
	246	1	-41.3	6.5	0	0	1	1.11488335	5.54500595	380	1	1.11483	1.03947;
	247	1	105.5	26.5	0	0	1	1.04636514	-26.6131273	225	1	1.08889	1.00444;
	248	1	0	0	0	0	1	1.06597602	-17.8180845	225	1	1.08889	1;
	249	1	0	0	0	0	1	1.06543966	-18.2209289	225	1	1.08889	1;
	250	1	0	0	0	0	1	1.0740402	-17.4303511	380	1	1.10526	1.05019;
	251	1	25.5	1.2	0	0	1	1.04489275	-9.90252684	225	1	1.08889	0.933333;
	252	1	171.9	30.6	0	0	1	1.06739957	-18.4984181	380	1	1.10526	1.03537;
	253	1	4.2	0	0	0	1	1.06522724	-26.7793108	225	1	1.08889	1.00444;
	254	1	0	0	0	0	1	1.06631482	-26.7208948	225	1	1.08889	1.00444;
	255	1	3.8	7.1	0	0	1	1.06539585	-27.028212	225	1	1.08889	1.00444;
	256	1	0	0	0	80	1	1.06323603	-26.5382698	225	1	1.08889	1.00444;
	257	1	0	0	0	0	1	1.06745305	-20.9540426	380	1	1.10526	1.04211;
	258	1	0	0	0	0	1	1.06678171	-20.9893718	380	1	1.10526	1.04211;
	259	1	185.6	81.4	0	0	1	1.03032126	-16.2636794	225	1	1.08889	0.928889;
	260	1	119	80.1	0	0	1	1.07635902	-11.8639791	380	1	1.10526	1.03947;
	261	1	192.7	31.7	0	0	1	1.07968845	-35.9232508	225	1	1.08444	1.00444;
	262	1	15.3	3.5	0	0	1	1.04765552	-9.31751199	225	1	1.08889	0.933333;
	263	1	296.4	84.9	0	0	1	1.09810275	-7.2761179	380	1	1.10526	1.03947;
	267	1	355.7	111	0	0	1	1.08100397	-21.2621451	225	1	1.08444	1.00444;
	268	1	0	0	0	0	1	1.09195419	-18.0050824	380	1	1.10263	1.04211;
	269	1	0	0	0	0	1	1.09197504	-18.0017716	380	1	1.10263	1.04211;
	270	2	52.3	16.7	0	0	1	1.022	-12.1505279	20	1	1.06846	0.95;
	271	1	0	0	0	0	1	1.02315409	-11.9548893	225	1	1.08889	0.986667;
	272	1	252.4	112.7	0	0	1	1.04683064	-18.1889519	225	1	1.08889	0.986667;
	273	1	322.8	48.4	0	0	1	1.08650875	-24.5736221	380	1	1.10263	1.04211;
	274	1	74.3	48.9	0	0	1	1.04674953	-12.1623184	225	1	1.09611	0.986667;
	275	1	6.3	1.4	0	0	1	1.07036145	-18.2466253	225	1	1.08889	1.00444;
	276	1	48	8	0	0	1	1.05315292	-26.7663181	225	1	1.08889	1.00444;
	277	1	-0	-0	0	0	1	1.05327879	-26.6980082	225	1	1.08889	1.00444;
	278	1	0	0	0	0	1	1.08676092	-11.7751078	20	1	1.4	0.9;
	279	1	45	46.1	0	0	1	1.08116208	-11.0264788	225	1	1.08889	0.933333;
	280	1	253.3	26.3	0	0	1	1.09777366	-7.74151261	380	1	1.10526	1.03947;
	281	1	0	0	0	0	1	1.06826116	-16.1285193	225	1	1.08959	1;
	282	1	0	0	0	0	1	1.08025962	-15.5300412	225	1	1.08959	1;
	283	1	0	0	0	0	1	1.04095676	-21.6685395	150	1	1.08	0.966667;
	284	1	40.1	2.4	0	0	1	1.07641476	-28.1860722	225	1	1.08889	1.00444;
	285	1	110.1	18.7	0	0	1	1.06684875	-27.0925619	225	1	1.08889	1.00444;
	286	1	120.6	18.1	0	0	1	1.04985995	-14.5287336	225	1	1.08889	0.933333;
	287	1	35.9	8.7	0	0	1	1.06502952	-25.2677429	225	1	1.08444	1.00444;
	288	1	24.2	6.8	0	0	1	1.06504189	-25.2666757	225	1	1.08444	1.00444;
	289	1	75.2	12.5	0	0	1	1.06544654	-25.9747371	225	1	1.08889	1.00444;
	290	1	176.7	47.6	0	0	1	1.06118297	-21.9031957	225	1	1.08889	1.00444;
	291	1	0	0	0	0	1	1.07383067	-19.204436	380	1	1.10526	1.04211;
	292	1	0	0	0	0	1	1.07418478	-19.0383541	380	1	1.10526	1.04211;
	293	1	0	0	0	0	1	1.08984508	-15.6978532	380	1	1.10526	1.04211;
	294	1	0	0	0	0	1	1.07400724	-19.1213848	380	1	1.10526	1.04211;
	295	1	317.6	108.4	0	325	1	1.08205569	-36.4957319	225	1	1.08444	1.00444;
	296	1	0	0	0	0	1	1.07341528	-11.8776947	380	1	1.10526	1;
	297	1	63.5	14.5	0	80	1	1.07762602	-28.4526651	225	1	1.08889	1.00444;
	298	1	0	0	0	0	1	1.05136246	-26.9341984	225	1	1.08889	1.00444;
	299	1	0	0	0	0	1	1.09132938	-9.96151297	380	1	1.10526	1.03947;
	300	1	0	0	0	0	1	1.0970021	-21.8142092	380	1	1.10263	1.04211;
	301	1	0	0	0	0	1	1.09706885	-21.8142153	380	1	1.10263	1.04211;
	302	1	0	0	0	0	1	1.09703109	-21.8140313	380	1	1.10263	1.04211;
	303	1	342.7	113.2	0	0	1	1.05269235	-35.8186212	225	1	1.08444	1.00444;
	304	1	28.9	-5.7	0	0	1	1.11613945	2.25209779	380	1	1.11618	1;
	305	1	-21.4	7.7	0	0	1	1.11671042	2.0123457	380	1	1.11703	1;
	306	1	82.8	19.7	0	0	1	1.08517736	-5.86904062	225	1	1.08889	0.888889;
	307	1	0	0	0	0	1	1.06872487	-25.2703054	225	1	1.08889	1.00444;
	308	1	0	0	0	0	1	1.07530526	-20.6528766	380	1	1.10526	1.04211;
	309	1	88.4	-29.1	0	0	1	1.05815643	-20.8229326	225	1	1.09445	1;
	310	1	-12.7	-1.9	0	0	1	1.07131285	-10.9308855	380	1	1.10263	1.04211;
	311	1	-27.9	-8.5	0	0	1	1.07127467	-10.9547324	380	1	1.10263	1.04211;
	312	1	1	-8.1	0	0	1	1.03719147	-15.8129302	225	1	1.08895	0.933333;
	313	1	141.2	17.7	0	0	1	1.06963153	-18.5963853	225	1	1.08889	1.00444;
	314	1	57.4	17.5	0	0	1	1.04284038	-16.1851678	225	1	1.08889	0.888889;
	315	1	45.8	6.5	0	0	1	1.04318748	-16.1726054	225	1	1.08889	0.888889;
	316	1	0	0	0	0	1	1.08763111	-12.5782765	380	1	1.10526	1.03947;
	317	1	193.1	70.9	0	80	1	1.05003975	-20.5479874	225	1	1.08889	1;
	318	1	82.1	17.5	0	0	1	1.05317308	-26.7601952	225	1	1.08889	1.00444;
	319	1	12.5	3.5	0	0	1	1.06041278	-14.2439475	150	1	1.10667	0.9;
	320	1	144.2	2.1	0	0	1	1.05442354	-34.3365266	225	1	1.08576	1.00444;
	321	1	20.2	-5	0	0	1	1.06012491	-17.9534853	225	1	1.08889	0.986667;
	323	1	143.6	22.9	0	0	1	1.03174123	-23.3598327	225	1	1.08889	1.00444;
	324	1	35.2	17.8	0	0	1	1.02202359	-20.7034054	225	1	1.08889	0.933333;
	325	1	172.7	-49.9	0	0	1	1.06858172	-48.7545757	225	1	1.08444	1.00444;
	326	1	48.9	0.9	0	0	1	1.06565947	-17.9546018	225	1	1.08444	1.00889;
	327	1	34.1	1.4	0	0	1	1.04781338	-22.0170098	20	1	1.4	0.9;
	328	1	45	7	0	0	1	1.06990992	-12.6826487	225	1	1.08889	0.933333;
	329	1	95.3	24.3	0	0	1	1.0639001	-12.1926388	225	1	1.08889	0.933333;
	330	1	102.2	29.3	0	0	1	1.07219057	-29.0980207	225	1	1.08889	1.00444;
	331	1	35.1	20.1	0	0	1	1.06477843	-26.0211123	225	1	1.08889	1.00444;
	332	1	36.4	13.3	0	0	1	1.06493967	-25.9907321	225	1	1.08889	1.00444;
	333	1	302.4	39.8	0	0	1	1.06514771	-24.4421875	225	1	1.08889	1.00444;
	334	1	48.5	23.7	0	0	1	1.04308653	-16.1437361	225	1	1.08889	0.888889;
	335	1	428.9	27.9	0	80	1	1.06487862	-33.1705416	225	1	1.08444	1.00444;
	336	1	0	0	0	0	1	1.08354341	-32.8117605	225	1	1.08444	1.00444;
	337	1	0.1	-0	0	0	1	1.08330135	-32.8599583	225	1	1.08444	1.00444;
	338	1	1	-1.4	0	0	1	1.08307124	-32.7781827	225	1	1.08444	1.00444;
	339	1	1.9	1.8	0	0	1	1.08521524	-30.8841931	380	1	1.10263	1.04211;
	340	1	0	0	0	0	1	1.08191618	-11.1533198	225	1	1.08889	0.933333;
	341	1	70.3	24	0	0	1	1.05273638	-26.7503097	225	1	1.08889	1.00444;
	342	1	54.2	14.3	0	0	1	1.0766929	-28.6118117	225	1	1.08889	1.00444;
	343	1	0	0	0	0	1	1.0639689	-28.9415432	225	1	1.08889	1.00444;
	344	1	139.3	31.9	0	80	1	1.06416808	-29.283104	225	1	1.08889	1.00444;
	345	1	70.9	11.8	0	0	1	1.04576567	-14.1105985	225	1	1.08889	0.933333;
	346	1	151.2	25.9	0	0	1	1.04726679	-14.9456277	225	1	1.08889	0.933333;
	347	1	0	0	0	0	1	1.0706605	-12.768673	380	1	1.10526	1.03947;
	348	1	2.3	2	0	0	1	1.08293912	-33.0389123	225	1	1.08444	1.00444;
	350	1	0	0	0	0	1	1.08508277	-30.9546087	380	1	1.10263	1.04211;
	351	1	170.9	41.9	0	0	1	1.05684199	-25.3335134	225	1	1.08889	1.00444;
	352	1	11.6	-2.4	0	0	1	1.05688051	-25.3730305	225	1	1.08889	1.00444;
	353	1	132.1	26.3	0	0	1	1.04676316	-20.2003303	225	1	1.09066	0.986667;
	354	1	191	-3.8	0	0	1	1.05668919	-23.0228678	225	1	1.08444	1.00889;
	355	2	0	0	0	0	1	1.0909646	-15.1501471	225	1	1.1	0.9;
	356	2	0	0	0	0	1	1.06	-16.3259715	225	1	1.0841	0.95;
	357	1	0	0	0	0	1	1.10235888	-0.232965964	380	1	1.10263	1.05526;
	358	1	18.4	8.2	0	0	1	1.04642813	-10.9475511	225	1	1.08889	0.933333;
	359	1	88.2	-14.8	0	0	1	1.05486439	-35.1440767	225	1	1.08618	1.00444;
	360	1	10.4	-25.6	0	0	1	1.07902878	-11.4278378	225	1	1.08889	0.933333;
	361	1	1.3	-8.6	0	0	1	1.07809089	-11.3633597	225	1	1.08889	0.933333;
	362	1	0	0	0	0	1	1.07450815	-12.3180246	225	1	1.08889	0.933333;
	363	1	0	0	0	0	1	1.09646442	-7.74437629	380	1	1.10526	1.03467;
	364	1	55.6	-3.9	0	0	1	1.02550249	-15.951644	225	1	1.08889	0.986667;
	365	1	141.8	42.4	0	0	1	1.03299789	-20.1429461	225	1	1.08889	0.986667;
	366	1	16.7	8.8	0	0	1	0.991872024	-22.7015594	150	1	1.1	0.9;
	367	1	124.7	-2.6	0	0	1	1.0543237	-14.044989	225	1	1.08889	0.933333;
	368	1	236.5	67.4	0	0	1	1.04423955	-16.0671018	225	1	1.08889	0.986667;
	369	1	0	0	0	0	1	1.07862358	-13.8721688	380	1	1.10526	1.03947;
	370	1	92.3	21	0	0	1	1.05156629	-26.9190989	225	1	1.08889	1.00444;
	371	1	0	0	0	0	1	1.07730704	-28.5139083	225	1	1.08889	1.00444;
	372	1	0	0	0	0	1	1.09641447	-8.71136376	380	1	1.10526	1.03947;
	373	1	0	0	0	0	1	1.09643353	-8.65455752	380	1	1.10526	1.03947;
	374	1	41.3	13.1	0	0	1	1.06625554	-25.8238786	225	1	1.08889	1.00444;
	375	1	53.6	8.5	0	0	1	1.04514713	-26.9375845	225	1	1.08889	1.00444;
	376	1	-15.1	-7.5	0	0	1	1.06392107	-7.89790514	225	1	1.08444	1.00889;
	377	1	0	0	0	0	1	1.05228773	-15.4593333	225	1	1.08889	0.888889;
	378	1	53.6	19.2	0	0	1	1.06739164	-12.8954511	225	1	1.08889	0.933333;
	379	1	0	0	0	0	1	1.07298734	-17.2387711	225	1	1.08889	1;
	380	1	-0.4	-0.1	0	0	1	1.04875212	-9.05478582	225	1	1.08444	1.00889;
	381	1	0	0	0	0	1	1.10277775	-0.0111713957	380	1	1.10526	1.05263;
	382	1	0	0	0	0	1	1.10277907	-0.00853592052	380	1	1.10526	1.05263;
	383	1	0	0	0	0	1	1.10286766	0.00655061759	380	1	1.10526	1.05263;
	384	1	0	0	0	0	1	1.10292264	-0.0112403231	380	1	1.10526	1.05263;
	385	1	14.3	1.2	0	0	1	1.04708183	-14.7216052	225	1	1.08889	0.933333;
	386	1	0	0	0	0	1	1.07069729	-16.8799671	150	1	1.08	0.966667;
	387	1	109.8	15.2	0	0	1	1.05215939	-12.8675403	225	1	1.08444	1.00889;
	388	1	68.4	15.7	0	0	1	1.04695385	-19.250519	225	1	1.08889	1;
	389	1	56.3	9.2	0	0	1	1.05221253	-19.5921648	225	1	1.08889	1;
	390	1	0	0	0	0	1	1.05960141	-14.4505973	380	1	1.10526	1.05263;
	391	1	0.3	-0.7	0	0	1	1.03798976	-15.625386	225	1	1.08889	0.888889;
	392	1	0	0	0	0	1	1.07512899	-11.1319703	225	1	1.08444	1.00889;
	393	1	26.2	4.3	0	0	1	1.05646181	-17.1600417	225	1	1.08889	0.986667;
	394	1	94.5	31	0	0	1	1.08822413	-2.49070331	225	1	1.09515	0.986667;
	395	1	131.1	17.3	0	0	1	1.06508634	-14.3020222	225	1	1.08889	0.933333;
	396	2	0	0	0	0	1	1.00534967	-16.8799717	20	1	1.1	0.9;
	397	1	0	0	0	0	1	1.07069755	-16.8799717	150	1	1.08	0.966667;
	398	1	292.9	20.6	0	0	1	1.06505854	-25.2643212	225	1	1.08444	1.00444;
	399	1	97.5	35.1	0	0	1	1.03579922	-14.5352985	225	1	1.09125	0.906667;
	400	1	0	0	0	0	1	1.07826621	-15.7465651	225	1	1.08889	0.977778;
	401	1	0	0	0	0	1	1.07918525	-15.6110764	225	1	1.08889	0.977778;
	402	1	69.2	14.5	0	0	1	1.06185776	-29.5945901	225	1	1.08889	1.00444;
	403	1	132	33.2	0	0	1	1.04645031	-26.7062565	225	1	1.08889	1.00444;
	404	1	70.5	-3.2	0	0	1	1.04254093	-16.1764241	225	1	1.08889	0.92;
	405	1	0	0	0	0	1	1.06607467	-26.4483029	225	1	1.08889	1.00444;
	406	1	229.8	67.5	0	0	1	1.05609227	-22.5008182	225	1	1.08889	1.00444;
	407	1	47.7	9.7	0	0	1	1.06688037	-24.5464742	225	1	1.08889	1.00444;
	408	1	80.7	-0.8	0	0	1	1.0653986	-13.9372596	225	1	1.08889	0.933333;
	409	1	188.7	38.9	0	0	1	1.0651778	-32.7328837	225	1	1.08449	1.00444;
	410	1	56	29.2	0	0	1	1.07625422	-28.5921034	225	1	1.09028	1.00444;
	411	1	0	0	0	0	1	1.09075694	-3.21115136	225	1	1.09787	0.986667;
	412	1	74.7	14.1	0	0	1	1.05533977	-28.9774795	225	1	1.08444	1.00889;
	413	1	82.3	10.5	0	0	1	1.09063832	-3.22156659	225	1	1.09778	0.986667;
	414	1	212.7	32	0	0	1	1.05107059	-19.9088696	225	1	1.08994	0.986667;
	416	1	163.1	74.9	0	0	1	1.05475626	-8.37996768	225	1	1.08444	1.00889;
	418	1	64.8	20.6	0	0	1	1.07904014	-11.5431073	225	1	1.08889	0.933333;
	419	1	40.9	-4.5	0	0	1	1.05797231	-18.1006919	225	1	1.08889	0.986667;
	420	1	130.1	-16.7	0	0	1	1.08091451	-21.9328164	225	1	1.08444	1.00444;
	421	1	0	0	0	0	1	1.08945598	-17.7332785	380	1	1.10263	1.04211;
	422	1	103.4	48.6	0	0	1	1.01512336	-18.2458533	225	1	1.08889	0.906667;
	423	1	79.9	2.7	0	0	1	1.0339687	-23.7695271	225	1	1.08889	1;
	424	1	33.7	4.6	0	0	1	1.07195979	-18.0540113	225	1	1.08889	1.00444;
	425	1	16	-20.6	0	0	1	1.0796068	-15.724084	225	1	1.08444	1.00889;
	426	1	0	0	0	0	1	1.06465718	-13.6493527	150	1	1.10667	0.946667;
	427	1	8.2	-1.2	0	0	1	1.04360813	-16.1099507	225	1	1.08889	0.888889;
	428	1	49.6	9	0	0	1	1.06811944	-12.5930983	225	1	1.08889	0.933333;
	429	1	10.4	1.2	0	0	1	1.08222715	-6.2150771	225	1	1.08889	0.888889;
	430	1	0	0	0	0	1	1.04584046	-14.1153663	225	1	1.08889	0.888889;
	431	1	0	0	0	0	1	1.0964632	-23.7536334	380	1	1.10526	1.03947;
	432	1	88.4	16.7	0	0	1	1.03133114	-7.91776815	225	1	1.08889	0.986667;
	433	1	77.8	21.4	0	0	1	1.03906204	2.12975973	225	1	1.04444	0.982222;
	434	1	0	0	0	0	1	1.07429732	-46.8129921	225	1	1.08444	1.00444;
	435	1	158.3	74.6	0	0	1	1.07386667	-28.4242045	225	1	1.08444	1.00444;
	436	1	0	0	0	0	1	1.08845112	-23.3402966	380	1	1.10263	1.04211;
	437	1	0	0	0	0	1	1.0699474	-4.51321252	225	1	1.15556	0.888889;
	438	1	0	0	0	0	1	1.06916213	-4.5291607	225	1	1.15556	0.888889;
	439	1	108.3	2.1	0	0	1	1.03967664	-41.4979257	225	1	1.08444	1.00444;
	440	1	201.6	49.4	0	0	1	1.07022981	-34.3090298	225	1	1.08444	1.00444;
	441	1	179.1	54.1	0	0	1	1.0787119	-30.045354	380	1	1.10263	1.04211;
	442	1	0	0	0	0	1	1.06077972	-16.9403304	225	1	1.08889	1;
	443	1	0	0	0	0	1	1.07051712	-10.7133376	380	1	1.10526	1.05263;
	444	1	152.8	72.5	0	0	1	1.04562161	-18.5023562	225	1	1.08889	1;
	445	1	38.9	5.8	0	0	1	1.07213161	-36.7005561	225	1	1.08444	1.00444;
	446	1	28.4	8.7	0	0	1	1.04182661	-16.1008045	225	1	1.08889	0.888889;