function mpc = case_illinois200
%CASE_ILLINOIS200  Synthetic 200 bus Illinois case.
%
%   This is an entirely synthetic 200 bus case, geographically situated
%   in the central part of the US state of Illinois. The case is
%   designed with a 230 and 115 kV transmission network to serve a load
%   that roughly mimics the actual population of its geographic
%   footprint. The synthetic transmission system was designed by
%   algorithms described in [1] to be statistically similar to actual
%   transmission system models but without modeling any actual lines.
%
%   When publishing results based on this data, please cite:
%
%   [1] A.B. Birchfield, T. Xu, K.M. Gegner, K.S. Shetye, T.J. Overbye,
%       "Grid Structural Characteristics as Validation Criteria for
%       Synthetic Networks," IEEE Transactions on Power Systems, 2017.

%   Created from Illinois200_DEC-06-2016_v19.pwb, saved by
%   PowerWorld Simulator, version 20 Beta, build date December 2, 2016,
%   then by MATPOWER 6.0.

%   MATPOWER
%   Copyright (c) 2016, Power Systems Engineering Research Center (PSERC)
%   Licensed under the Creative Commons Attribution 4.0 International license,
%   http://creativecommons.org/licenses/by/4.0/

%% MATPOWER Case Format : Version 2
mpc.version = '2';

%%-----  Power Flow Data  -----%%
%% system MVA base
mpc.baseMVA = 100;

%% bus data
%	bus_i	type	Pd	Qd	Gs	Bs	area	Vm	Va	baseKV	zone	Vmax	Vmin	lam_P	lam_Q	mu_Vmax	mu_Vmin
mpc.bus = [
	1	1	0	0	0	0	1	0.9987253	-36.484845	115	1	1.1	0.9	19.9100	0.0000	0.0000	0.0000;
	2	1	10.95	3.12	0	0	1	0.9985471	-36.504646	115	1	1.1	0.9	19.9100	0.0000	0.0000	0.0000;
	3	1	0	0	0	0	1	1.0103316	-38.186132	115	1	1.1	0.9	19.9100	0.0000	0.0000	0.0000;
	4	1	2.72	0.77	0	0	1	1.0102908	-38.190918	115	1	1.1	0.9	19.9100	0.0000	0.0000	0.0000;
	5	1	0	0	0	0	1	1.0231747	-38.81435	115	1	1.1	0.9	19.9100	0.0000	0.0000	0.0000;
	6	1	12.5	3.56	0	0	1	1.0229736	-38.835837	115	1	1.1	0.9	19.9100	0.0000	0.0000	0.0000;
	7	1	0	0	0	0	1	0.9895163	-37.640747	115	1	1.1	0.9	19.9100	0.0000	0.0000	0.0000;
	8	1	35.2	10.03	0	0	1	0.9889666	-37.702748	115	1	1.1	0.9	19.9100	0.0000	0.0000	0.0000;
	9	1	0	0	0	0	1	0.9939302	-37.023795	115	1	1.1	0.9	19.9100	0.0000	0.0000	0.0000;
	10	1	63.29	18.04	0	0	1	0.9928336	-37.163436	115	1	1.1	0.9	19.9100	0.0000	0.0000	0.0000;
	11	1	0	0	0	0	1	1.0349069	-35.627278	115	1	1.1	0.9	19.9100	0.0000	0.0000	0.0000;
	12	1	0.49	0.14	0	0	1	1.0348996	-35.628157	115	1	1.1	0.9	19.9100	0.0000	0.0000	0.0000;
	13	1	4.04	1.15	0	0	1	1.0348425	-35.634698	115	1	1.1	0.9	19.9100	0.0000	0.0000	0.0000;
	14	1	0	0	0	0	1	1.0331195	-34.381983	230	1	1.1	0.9	19.9100	0.0000	0.0000	0.0000;
	15	1	0	0	0	30	1	1.0355891	-35.497711	115	1	1.1	0.9	19.9100	0.0000	0.0000	0.0000;
	16	1	71.7	20.44	0	0	1	1.0345716	-35.61438	115	1	1.1	0.9	19.9100	0.0000	0.0000	0.0000;
	17	1	0	0	0	0	1	1.0011339	-39.161689	115	1	1.1	0.9	19.9100	0.0000	0.0000	0.0000;
	18	1	1.14	0.33	0	0	1	1.0011154	-39.164163	115	1	1.1	0.9	19.9100	0.0000	0.0000	0.0000;
	19	1	1.23	0.35	0	0	1	1.0011168	-39.163754	115	1	1.1	0.9	19.9100	0.0000	0.0000	0.0000;
	20	1	1.81	0.52	0	0	1	1.0011054	-39.164968	115	1	1.1	0.9	19.9100	0.0000	0.0000	0.0000;
	21	1	7.38	2.1	0	0	1	1.0010054	-39.177564	115	1	1.1	0.9	19.9100	0.0000	0.0000	0.0000;
	22	1	0	0	0	0	1	1.0344601	-35.650737	115	1	1.1	0.9	19.9100	0.0000	0.0000	0.0000;
	23	1	2.26	0.64	0	0	1	1.0344265	-35.654423	115	1	1.1	0.9	19.9100	0.0000	0.0000	0.0000;
	24	1	3.84	1.09	0	0	1	1.0344021	-35.65664	115	1	1.1	0.9	19.9100	0.0000	0.0000	0.0000;
	25	1	0	0	0	0	1	1.0257099	-39.09735	115	1	1.1	0.9	19.9100	0.0000	0.0000	0.0000;
	26	1	2.13	0.61	0	0	1	1.0256791	-39.100707	115	1	1.1	0.9	19.9100	0.0000	0.0000	0.0000;
	27	1	0	0	0	0	1	1.0350538	-35.782451	115	1	1.1	0.9	19.9100	0.0000	0.0000	0.0000;
	28	1	3.74	1.07	0	0	1	1.0349918	-35.79004	115	1	1.1	0.9	19.9100	0.0000	0.0000	0.0000;
	29	1	0	0	0	0	1	0.9988561	-36.226215	115	1	1.1	0.9	19.9100	0.0000	0.0000	0.0000;
	30	1	87.62	24.97	0	0	1	0.9974594	-36.374027	115	1	1.1	0.9	19.9100	0.0000	0.0000	0.0000;
	31	1	0	0	0	0	1	0.9993814	-39.56236	115	1	1.1	0.9	19.9100	0.0000	0.0000	0.0000;
	32	1	0.7	0.2	0	0	1	0.9993689	-39.563847	115	1	1.1	0.9	19.9100	0.0000	0.0000	0.0000;
	33	1	8.82	2.51	0	0	1	0.9992433	-39.580004	115	1	1.1	0.9	19.9100	0.0000	0.0000	0.0000;
	34	1	0	0	0	0	1	1.017926	-36.92968	115	1	1.1	0.9	19.9100	0.0000	0.0000	0.0000;
	35	1	33.26	9.48	0	0	1	1.017395	-36.994263	115	1	1.1	0.9	19.9100	0.0000	0.0000	0.0000;
	36	1	0	0	0	0	1	1.0059315	-39.693345	115	1	1.1	0.9	19.9100	0.0000	0.0000	0.0000;
	37	1	4.89	1.39	0	0	1	1.0058586	-39.702124	115	1	1.1	0.9	19.9100	0.0000	0.0000	0.0000;
	38	1	40.81	11.63	0	0	1	1.0052524	-39.770111	115	1	1.1	0.9	19.9100	0.0000	0.0000	0.0000;
	39	1	11.86	3.38	0	0	1	0.9988683	-39.913488	115	1	1.1	0.9	19.9100	0.0000	0.0000	0.0000;
	40	1	3.28	0.93	0	0	1	0.9988227	-39.919055	115	1	1.1	0.9	19.9100	0.0000	0.0000	0.0000;
	41	1	61.87	17.63	0	0	1	1.0150375	-41.826757	115	1	1.1	0.9	19.9100	0.0000	0.0000	0.0000;
	42	1	17.01	4.85	0	0	1	1.0070583	-38.646358	115	1	1.1	0.9	19.9100	0.0000	0.0000	0.0000;
	43	1	3.09	0.88	0	0	1	0.9943791	-38.626607	115	1	1.1	0.9	19.9100	0.0000	0.0000	0.0000;
	44	1	6.65	1.89	0	0	1	1.004904	-38.490044	115	1	1.1	0.9	19.9100	0.0000	0.0000	0.0000;
	45	1	0	0	0	0	1	1.0277558	-33.752015	230	1	1.1	0.9	19.9100	0.0000	0.0000	0.0000;
	46	1	8.68	2.47	0	0	1	1.0252088	-34.633271	115	1	1.1	0.9	19.9100	0.0000	0.0000	0.0000;
	47	1	2.47	0.71	0	0	1	1.0316417	-35.017317	115	1	1.1	0.9	19.9100	0.0000	0.0000	0.0000;
	48	1	2.87	0.82	0	0	1	1.0204693	-39.106063	115	1	1.1	0.9	19.9100	0.0000	0.0000	0.0000;
	49	2	0	0	0	0	1	1.0322808	-37.826268	13.8	1	1.1	0.9	19.9100	0.0000	0.0000	0.0000;
	50	2	0	0	0	0	1	1.0295607	-38.132551	13.8	1	1.1	0.9	19.9100	0.0000	0.0000	0.0000;
	51	2	0	0	0	0	1	1.0338254	-37.629606	13.8	1	1.1	0.9	19.9100	0.0000	0.0000	0.0000;
	52	2	0	0	0	0	1	1.0290833	-38.19229	13.8	1	1.1	0.9	19.9100	0.0000	0.0000	0.0000;
	53	2	0	0	0	0	1	1.04	-36.320835	13.8	1	1.1	0.9	19.9100	0.0000	0.0000	0.0000;
	54	1	4.27	1.22	0	0	1	1.0279093	-35.518225	115	1	1.1	0.9	19.9100	0.0000	0.0000	0.0000;
	55	1	0	0	0	0	1	1.0247171	-34.507306	230	1	1.1	0.9	19.9100	0.0000	0.0000	0.0000;
	56	1	1.79	0.51	0	0	1	1.0231808	-34.882556	115	1	1.1	0.9	19.9100	0.0000	0.0000	0.0000;
	57	1	4.52	1.29	0	0	1	1.0055562	-38.958227	115	1	1.1	0.9	19.9100	0.0000	0.0000	0.0000;
	58	1	5.79	1.65	0	0	1	1.0130443	-39.471071	115	1	1.1	0.9	19.9100	0.0000	0.0000	0.0000;
	59	1	7.02	2	0	0	1	0.9916953	-39.285283	115	1	1.1	0.9	19.9100	0.0000	0.0000	0.0000;
	60	1	5.63	1.6	0	0	1	1.0135099	-35.185033	115	1	1.1	0.9	19.9100	0.0000	0.0000	0.0000;
	61	1	28.14	8.02	0	0	1	1.0213539	-35.141536	115	1	1.1	0.9	19.9100	0.0000	0.0000	0.0000;
	62	1	34.29	9.77	0	0	1	1.0013273	-39.623617	115	1	1.1	0.9	19.9100	0.0000	0.0000	0.0000;
	63	1	12.79	3.64	0	0	1	1.027569	-37.020582	115	1	1.1	0.9	19.9100	0.0000	0.0000	0.0000;
	64	1	0	0	0	0	1	1.0291107	-38.087884	115	1	1.1	0.9	19.9100	0.0000	0.0000	0.0000;
	65	2	0	0	0	0	1	1.04	-34.796049	13.8	1	1.1	0.9	19.9100	0.0000	0.0000	0.0000;
	66	1	0	0	0	0	1	1.0357844	-34.438374	115	1	1.1	0.9	19.9100	0.0000	0.0000	0.0000;
	67	2	0	0	0	0	1	1.039763	-34.100753	13.8	1	1.1	0.9	19.9100	0.0000	0.0000	0.0000;
	68	2	0	0	0	0	1	1.04	-30.506916	13.8	1	1.1	0.9	19.9100	0.0000	0.0000	0.0000;
	69	2	0	0	0	0	1	1.04	-33.036192	13.8	1	1.1	0.9	19.9100	0.0000	0.0000	0.0000;
	70	2	0	0	0	0	1	1.04	-31.482346	13.8	1	1.1	0.9	19.9100	0.0000	0.0000	0.0000;
	71	2	0	0	0	0	1	1.04	-33.235699	13.8	1	1.1	0.9	19.9100	0.0000	0.0000	0.0000;
	72	2	0	0	0	0	1	1.04	-33.339534	13.8	1	1.1	0.9	19.9100	0.0000	0.0000	0.0000;
	73	2	0	0	0	0	1	1.04	-32.271523	13.8	1	1.1	0.9	19.9100	0.0000	0.0000	0.0000;
	74	1	29.51	8.41	0	0	1	1.0095407	-40.161028	115	1	1.1	0.9	19.9100	0.0000	0.0000	0.0000;
	75	1	5.34	1.52	0	0	1	1.0145111	-34.715113	115	1	1.1	0.9	19.9100	0.0000	0.0000	0.0000;
	76	2	0	0	0	0	1	1.030452	-34.242271	13.8	1	1.1	0.9	19.9100	0.0000	0.0000	0.0000;
	77	2	0	0	0	0	1	1.0399996	-33.909675	13.8	1	1.1	0.9	19.9100	0.0000	0.0000	0.0000;
	78	2	0	0	0	0	1	1.0145111	-34.715113	13.8	1	1.1	0.9	19.9100	0.0000	0.0000	0.0000;
	79	2	0	0	0	0	1	1.0145111	-34.715113	13.8	1	1.1	0.9	19.9100	0.0000	0.0000	0.0000;
	80	1	2.38	0.68	0	0	1	1.0176234	-40.507786	115	1	1.1	0.9	19.9100	0.0000	0.0000	0.0000;
	81	1	0	0	0	0	1	1.0198084	-36.318888	230	1	1.1	0.9	19.9100	0.0000	0.0000	0.0000;
	82	1	11.96	3.41	0	0	1	1.0148957	-37.611244	115	1	1.1	0.9	19.9100	0.0000	0.0000	0.0000;
	83	1	4.29	1.22	0	0	1	1.012163	-38.235649	115	1	1.1	0.9	19.9100	0.0000	0.0000	0.0000;
	84	1	5.56	1.59	0	0	1	0.9974352	-38.576435	115	1	1.1	0.9	19.9100	0.0000	0.0000	0.0000;
	85	1	7.74	2.21	0	0	1	0.998593	-39.876466	115	1	1.1	0.9	19.9100	0.0000	0.0000	0.0000;
	86	1	12.23	3.49	0	0	1	0.9914831	-37.33722	115	1	1.1	0.9	19.9100	0.0000	0.0000	0.0000;
	87	1	0	0	0	0	1	1.0239312	-34.425784	230	1	1.1	0.9	19.9100	0.0000	0.0000	0.0000;
	88	1	79.66	22.7	0	0	1	1.0179159	-36.548316	115	1	1.1	0.9	19.9100	0.0000	0.0000	0.0000;
	89	1	86.04	24.52	0	0	1	1.0153373	-38.730979	115	1	1.1	0.9	19.9100	0.0000	0.0000	0.0000;
	90	2	0	0	0	0	1	1.0400527	-37.57943	13.8	1	1.1	0.9	19.9100	0.0000	0.0000	0.0000;
	91	2	0	0	0	0	1	1.0281598	-38.350971	13.8	1	1.1	0.9	19.9100	0.0000	0.0000	0.0000;
	92	2	0	0	0	0	1	1.0153373	-38.730979	13.8	1	1.1	0.9	19.9100	0.0000	0.0000	0.0000;
	93	1	4.91	1.4	0	0	1	1.0338729	-36.46476	115	1	1.1	0.9	19.9100	0.0000	0.0000	0.0000;
	94	2	0	0	0	0	1	1.04	-33.783748	13.8	1	1.1	0.9	19.9100	0.0000	0.0000	0.0000;
	95	1	4.11	1.17	0	30	1	1.0232285	-39.22667	115	1	1.1	0.9	19.9100	0.0000	0.0000	0.0000;
	96	1	4.05	1.15	0	0	1	1.0213953	-36.538532	115	1	1.1	0.9	19.9100	0.0000	0.0000	0.0000;
	97	1	10.87	3.1	0	0	1	1.0071893	-36.745569	115	1	1.1	0.9	19.9100	0.0000	0.0000	0.0000;
	98	1	0	0	0	0	1	1.011373	-33.812716	230	1	1.1	0.9	19.9100	0.0000	0.0000	0.0000;
	99	1	18.04	5.14	0	0	1	1.0042577	-35.251722	115	1	1.1	0.9	19.9100	0.0000	0.0000	0.0000;
	100	1	60.35	17.2	0	80	1	1.0247974	-41.244916	115	1	1.1	0.9	19.9100	0.0000	0.0000	0.0000;
	101	1	0.77	0.22	0	0	1	0.9929976	-37.226845	115	1	1.1	0.9	19.9100	0.0000	0.0000	0.0000;
	102	1	0	0	0	0	1	1.0264281	-34.196747	230	1	1.1	0.9	19.9100	0.0000	0.0000	0.0000;
	103	1	0	0	0	0	1	1.0228028	-34.942196	115	1	1.1	0.9	19.9100	0.0000	0.0000	0.0000;
	104	2	0	0	0	0	1	1.04	-31.764889	13.8	1	1.1	0.9	19.9100	0.0000	0.0000	0.0000;
	105	2	0	0	0	0	1	1.04	-32.199518	13.8	1	1.1	0.9	19.9100	0.0000	0.0000	0.0000;
	106	1	2.82	0.8	0	0	1	1.0183205	-35.532764	115	1	1.1	0.9	19.9100	0.0000	0.0000	0.0000;
	107	1	71.96	20.51	0	0	1	0.9937757	-39.401922	115	1	1.1	0.9	19.9100	0.0000	0.0000	0.0000;
	108	1	13.97	3.98	0	0	1	1.009449	-35.497994	115	1	1.1	0.9	19.9100	0.0000	0.0000	0.0000;
	109	1	8.26	2.35	0	0	1	1.0053316	-38.276135	115	1	1.1	0.9	19.9100	0.0000	0.0000	0.0000;
	110	1	16.1	4.59	0	0	1	0.993136	-37.186933	115	1	1.1	0.9	19.9100	0.0000	0.0000	0.0000;
	111	1	14.23	4.05	0	0	1	1.0102879	-42.063077	115	1	1.1	0.9	19.9100	0.0000	0.0000	0.0000;
	112	1	0	0	0	0	1	1.020933	-34.8794	230	1	1.1	0.9	19.9100	0.0000	0.0000	0.0000;
	113	1	0	0	0	0	1	1.0008686	-38.390099	115	1	1.1	0.9	19.9100	0.0000	0.0000	0.0000;
	114	2	0	0	0	0	1	1.0230842	-34.634125	13.8	1	1.1	0.9	19.9100	0.0000	0.0000	0.0000;
	115	2	0	0	0	0	1	1.0399997	-32.355944	13.8	1	1.1	0.9	19.9100	0.0000	0.0000	0.0000;
	116	1	0	0	0	0	1	1.0104285	-34.168369	230	1	1.1	0.9	19.9100	0.0000	0.0000	0.0000;
	117	1	50.54	14.4	0	0	1	0.999201	-36.643951	115	1	1.1	0.9	19.9100	0.0000	0.0000	0.0000;
	118	1	5.84	1.66	0	0	1	1.0033711	-35.972147	115	1	1.1	0.9	19.9100	0.0000	0.0000	0.0000;
	119	1	26.03	7.42	0	0	1	0.9895964	-38.886846	115	1	1.1	0.9	19.9100	0.0000	0.0000	0.0000;
	120	1	2.88	0.82	0	0	1	0.9996053	-39.627558	115	1	1.1	0.9	19.9100	0.0000	0.0000	0.0000;
	121	1	0	0	0	0	1	1.0324816	-32.772229	230	1	1.1	0.9	19.9100	0.0000	0.0000	0.0000;
	122	1	21.14	6.02	0	0	1	1.0262679	-34.804698	115	1	1.1	0.9	19.9100	0.0000	0.0000	0.0000;
	123	1	0	0	0	0	1	1.0221851	-32.299716	230	1	1.1	0.9	19.9100	0.0000	0.0000	0.0000;
	124	1	0	0	0	0	1	1.0082927	-34.986017	115	1	1.1	0.9	19.9100	0.0000	0.0000	0.0000;
	125	2	0	0	0	0	1	1.04	-25.00025	13.8	1	1.1	0.9	19.9100	0.0000	0.0000	0.0000;
	126	2	0	0	0	0	1	1.04	-27.689867	13.8	1	1.1	0.9	19.9100	0.0000	0.0000	0.0000;
	127	2	0	0	0	0	1	1.0399998	-30.108481	13.8	1	1.1	0.9	19.9100	0.0000	0.0000	0.0000;
	128	1	0	0	0	0	1	1.0203933	-34.83526	230	1	1.1	0.9	19.9100	0.0000	0.0000	0.0000;
	129	1	105.76	30.14	0	0	1	0.9994277	-38.546988	115	1	1.1	0.9	19.9100	0.0000	0.0000	0.0000;
	130	1	6.02	1.72	0	0	1	1.0145653	-35.984118	115	1	1.1	0.9	19.9100	0.0000	0.0000	0.0000;
	131	1	44.86	12.79	0	0	1	0.9940677	-37.05827	115	1	1.1	0.9	19.9100	0.0000	0.0000	0.0000;
	132	1	39.98	11.39	0	0	1	0.9900854	-38.563865	115	1	1.1	0.9	19.9100	0.0000	0.0000	0.0000;
	133	1	0	0	0	0	1	1.0242435	-32.306364	230	1	1.1	0.9	19.9100	0.0000	0.0000	0.0000;
	134	1	0	0	0	0	1	1.0195573	-33.769344	115	1	1.1	0.9	19.9100	0.0000	0.0000	0.0000;
	135	2	0	0	0	0	1	1.04	-28.408423	13.8	1	1.1	0.9	19.9100	0.0000	0.0000	0.0000;
	136	2	0	0	0	0	1	1.04	-29.416358	13.8	1	1.1	0.9	19.9100	0.0000	0.0000	0.0000;
	137	1	1.86	0.53	0	0	1	1.0137634	-37.627525	115	1	1.1	0.9	19.9100	0.0000	0.0000	0.0000;
	138	1	3.29	0.94	0	0	1	1.0078133	-38.579746	115	1	1.1	0.9	19.9100	0.0000	0.0000	0.0000;
	139	1	10.14	2.89	0	0	1	0.9946733	-39.376811	115	1	1.1	0.9	19.9100	0.0000	0.0000	0.0000;
	140	1	12.18	3.47	0	0	1	1.0063156	-35.35143	115	1	1.1	0.9	19.9100	0.0000	0.0000	0.0000;
	141	1	2.11	0.6	0	0	1	0.9930708	-37.183069	115	1	1.1	0.9	19.9100	0.0000	0.0000	0.0000;
	142	1	55.26	15.75	0	0	1	0.9914475	-37.194045	115	1	1.1	0.9	19.9100	0.0000	0.0000	0.0000;
	143	1	43.22	12.32	0	0	1	1.008897	-39.577922	115	1	1.1	0.9	19.9100	0.0000	0.0000	0.0000;
	144	1	13.43	3.83	0	0	1	1.0037721	-36.964329	115	1	1.1	0.9	19.9100	0.0000	0.0000	0.0000;
	145	1	28.32	8.07	0	0	1	1.0093721	-37.694371	115	1	1.1	0.9	19.9100	0.0000	0.0000	0.0000;
	146	1	0	0	0	0	1	1.0169636	-38.0211	115	1	1.1	0.9	19.9100	0.0000	0.0000	0.0000;
	147	2	0	0	0	0	1	1.0381577	-35.728968	13.8	1	1.1	0.9	19.9100	0.0000	0.0000	0.0000;
	148	1	47.49	13.53	0	0	1	0.9849749	-38.239004	115	1	1.1	0.9	19.9100	0.0000	0.0000	0.0000;
	149	1	0	0	0	0	1	1.0276389	-33.725517	230	1	1.1	0.9	19.9100	0.0000	0.0000	0.0000;
	150	1	0	0	0	0	1	1.0233662	-35.739007	115	1	1.1	0.9	19.9100	0.0000	0.0000	0.0000;
	151	2	0	0	0	0	1	1.04	-31.937978	13.8	1	1.1	0.9	19.9100	0.0000	0.0000	0.0000;
	152	2	0	0	0	0	1	1.04	-27.865328	13.8	1	1.1	0.9	19.9100	0.0000	0.0000	0.0000;
	153	2	0	0	0	0	1	1.04	-26.089597	13.8	1	1.1	0.9	19.9100	0.0000	0.0000	0.0000;
	154	2	0	0	0	0	1	1.04	-29.478111	13.8	1	1.1	0.9	19.9100	0.0000	0.0000	0.0000;
	155	2	0	0	0	0	1	1.04	-29.607317	13.8	1	1.1	0.9	19.9100	0.0000	0.0000	0.0000;
	156	1	0	0	0	0	1	1.0223269	-32.427279	230	1	1.1	0.9	19.9100	0.0000	0.0000	0.0000;
	157	1	21.88	6.24	0	0	1	1.0187677	-33.574016	115	1	1.1	0.9	19.9100	0.0000	0.0000	0.0000;
	158	1	14.36	4.09	0	0	1	1.034686	-35.213704	115	1	1.1	0.9	19.9100	0.0000	0.0000	0.0000;
	159	1	2.22	0.63	0	0	1	1.0019767	-39.516135	115	1	1.1	0.9	19.9100	0.0000	0.0000	0.0000;
	160	1	0	0	0	0	1	1.0081743	-38.723814	115	1	1.1	0.9	19.9100	0.0000	0.0000	0.0000;
	161	2	0	0	0	0	1	1.0081743	-38.723814	13.8	1	1.1	0.9	19.9100	0.0000	0.0000	0.0000;
	162	1	2.15	0.61	0	0	1	1.0024632	-36.906507	115	1	1.1	0.9	19.9100	0.0000	0.0000	0.0000;
	163	1	73.93	21.07	0	0	1	1.0123536	-41.843199	115	1	1.1	0.9	19.9100	0.0000	0.0000	0.0000;
	164	2	0	0	0	0	1	1.0123536	-41.843199	13.8	1	1.1	0.9	19.9100	0.0000	0.0000	0.0000;
	165	2	0	0	0	0	1	1.0123536	-41.843199	13.8	1	1.1	0.9	19.9100	0.0000	0.0000	0.0000;
	166	2	0	0	0	0	1	1.0123536	-41.843199	13.8	1	1.1	0.9	19.9100	0.0000	0.0000	0.0000;
	167	2	0	0	0	0	1	1.0218227	-41.564013	13.8	1	1.1	0.9	19.9100	0.0000	0.0000	0.0000;
	168	2	0	0	0	0	1	1.0123536	-41.843199	13.8	1	1.1	0.9	19.9100	0.0000	0.0000	0.0000;
	169	2	0	0	0	0	1	1.0123536	-41.843199	13.8	1	1.1	0.9	19.9100	0.0000	0.0000	0.0000;
	170	2	0	0	0	0	1	1.0301529	-41.305336	13.8	1	1.1	0.9	19.9100	0.0000	0.0000	0.0000;
	171	1	12.49	3.56	0	0	1	1.0060941	-39.656251	115	1	1.1	0.9	19.9100	0.0000	0.0000	0.0000;
	172	1	8.68	2.47	0	0	1	1.018887	-40.984003	115	1	1.1	0.9	19.9100	0.0000	0.0000	0.0000;
	173	1	14.06	4.01	0	0	1	1.0119075	-41.57088	115	1	1.1	0.9	19.9100	0.0000	0.0000	0.0000;
	174	1	4.47	1.27	0	0	1	1.0204429	-40.065498	115	1	1.1	0.9	19.9100	0.0000	0.0000	0.0000;
	175	1	11.8	3.36	0	0	1	1.0099292	-41.994472	115	1	1.1	0.9	19.9100	0.0000	0.0000	0.0000;
	176	1	30.69	8.75	0	0	1	1.0131194	-37.170943	115	1	1.1	0.9	19.9100	0.0000	0.0000	0.0000;
	177	1	15.45	4.4	0	0	1	1.0073091	-39.250774	115	1	1.1	0.9	19.9100	0.0000	0.0000	0.0000;
	178	1	0	0	0	0	1	1.019565	-37.089357	230	1	1.1	0.9	19.9100	0.0000	0.0000	0.0000;
	179	1	38.1	10.86	0	0	1	1.0183811	-40.152559	115	1	1.1	0.9	19.9100	0.0000	0.0000	0.0000;
	180	1	12.5	3.56	0	0	1	1.0184757	-40.98553	115	1	1.1	0.9	19.9100	0.0000	0.0000	0.0000;
	181	1	76.87	21.91	0	0	1	1.0118841	-38.230887	115	1	1.1	0.9	19.9100	0.0000	0.0000	0.0000;
	182	2	0	0	0	0	1	1.0359846	-35.430907	13.8	1	1.1	0.9	19.9100	0.0000	0.0000	0.0000;
	183	2	0	0	0	0	1	1.0264683	-36.58583	13.8	1	1.1	0.9	19.9100	0.0000	0.0000	0.0000;
	184	1	17.26	4.92	0	0	1	1.0223367	-39.874601	115	1	1.1	0.9	19.9100	0.0000	0.0000	0.0000;
	185	1	17.42	4.96	0	0	1	1.0130106	-37.196027	115	1	1.1	0.9	19.9100	0.0000	0.0000	0.0000;
	186	1	3.12	0.89	0	0	1	1.0108151	-37.232587	115	1	1.1	0.9	19.9100	0.0000	0.0000	0.0000;
	187	1	0	0	0	0	1	1.03501	-31.777405	230	1	1.1	0.9	19.9100	0.0000	0.0000	0.0000;
	188	1	0	0	0	0	1	1.0260971	-35.97214	115	1	1.1	0.9	19.9100	0.0000	0.0000	0.0000;
	189	3	0	0	0	0	1	1.04	-29.418352	13.8	1	1.1	0.9	19.9100	0.0000	0.0000	0.0000;
	190	1	26.41	7.53	0	0	1	1.0045903	-40.38272	115	1	1.1	0.9	19.9100	0.0000	0.0000	0.0000;
	191	1	11.67	3.32	0	0	1	1.0244728	-38.931208	115	1	1.1	0.9	19.9100	0.0000	0.0000	0.0000;
	192	1	72.21	20.58	0	0	1	0.9936463	-39.564117	115	1	1.1	0.9	19.9100	0.0000	0.0000	0.0000;
	193	1	32.61	9.29	0	0	1	0.9949034	-36.917745	115	1	1.1	0.9	19.9100	0.0000	0.0000	0.0000;
	194	1	60.67	17.29	0	50	1	1.0203914	-37.041793	115	1	1.1	0.9	19.9100	0.0000	0.0000	0.0000;
	195	1	0	0	0	0	1	1.0115779	-38.232512	115	1	1.1	0.9	19.9100	0.0000	0.0000	0.0000;
	196	2	0	0	0	0	1	1.0115779	-38.232512	13.8	1	1.1	0.9	19.9100	0.0000	0.0000	0.0000;
	197	2	0	0	0	0	1	1.0115779	-38.232512	13.8	1	1.1	0.9	19.9100	0.0000	0.0000	0.0000;
	198	1	7.97	2.27	0	0	1	1.0044686	-36.042435	115	1	1.1	0.9	19.9100	0.0000	0.0000	0.0000;
	199	1	6.69	1.91	0	0	1	1.0216683	-40.242031	115	1	1.1	0.9	19.9100	0.0000	0.0000	0.0000;
	200	1	14.97	4.27	0	0	1	1.0037141	-37.924332	115	1	1.1	0.9	19.9100	0.0000	0.0000	0.0000;
];

%% generator data
%	bus	Pg	Qg	Qmax	Qmin	Vg	mBase	status	Pmax	Pmin	Pc1	Pc2	Qc1min	Qc1max	Qc2min	Qc2max	ramp_agc	ramp_10	ramp_30	ramp_q	apf	mu_Pmax	mu_Pmin	mu_Qmax	mu_Qmin
mpc.gen = [
	49	4.53	2.11	2.11	-0.55	1.04	5.44	1	4.53	1.36	0	0	0	0	0	0	0	0	0	0	0	0.0000	0.0000	0.0000	0.0000;
	50	4.53	2.11	2.11	-0.55	1.04	5.44	1	4.53	1.36	0	0	0	0	0	0	0	0	0	0	0	0.0000	0.0000	0.0000	0.0000;
	51	4.53	2.11	2.11	-0.55	1.04	5.44	1	4.53	1.36	0	0	0	0	0	0	0	0	0	0	0	0.0000	0.0000	0.0000	0.0000;
	52	4.53	2.11	2.11	-0.55	1.04	5.44	1	4.53	1.36	0	0	0	0	0	0	0	0	0	0	0	0.0000	0.0000	0.0000	0.0000;
	53	9.07	3.41	4.23	-1.11	1.04	10.88	1	9.07	2.72	0	0	0	0	0	0	0	0	0	0	0	0.0000	0.0000	0.0000	0.0000;
	65	60.66	12.12	32.04	-21.66	1.04	180.48	1	150.4	45.12	0	0	0	0	0	0	0	0	0	0	0	0.0000	0.0000	0.0000	0.0000;
	67	4.7	2.19	2.19	-0.57	1.04	5.64	1	4.7	1.41	0	0	0	0	0	0	0	0	0	0	0	0.0000	0.0000	0.0000	0.0000;
	68	27.92	1.89	13.01	-3.41	1.04	33.5	1	27.92	8.38	0	0	0	0	0	0	0	0	0	0	0	0.0000	0.0000	0.0000	0.0000;
	69	27.92	3.66	13.01	-3.41	1.04	33.5	1	27.92	8.38	0	0	0	0	0	0	0	0	0	0	0	0.0000	0.0000	0.0000	0.0000;
	70	27.92	1.95	13.01	-3.41	1.04	33.5	1	27.92	8.38	0	0	0	0	0	0	0	0	0	0	0	0.0000	0.0000	0.0000	0.0000;
	71	27.92	4.46	13.01	-3.41	1.04	33.5	1	27.92	8.38	0	0	0	0	0	0	0	0	0	0	0	0.0000	0.0000	0.0000	0.0000;
	72	27.92	4.82	13.01	-3.41	1.04	33.5	1	27.92	8.38	0	0	0	0	0	0	0	0	0	0	0	0.0000	0.0000	0.0000	0.0000;
	73	27.92	2.21	13.01	-3.41	1.04	33.5	1	27.92	8.38	0	0	0	0	0	0	0	0	0	0	0	0.0000	0.0000	0.0000	0.0000;
	76	1.2	2.04	2.04	-0.44	1.04	4.8	1	4	1.2	0	0	0	0	0	0	0	0	0	0	0	0.0000	0.0000	0.0000	0.0000;
	77	0.72	1.19	1.22	-0.27	1.04	2.88	1	2.4	0.72	0	0	0	0	0	0	0	0	0	0	0	0.0000	0.0000	0.0000	0.0000;
	78	0	0	9.16	-2	1.04	21.6	0	18	5.4	0	0	0	0	0	0	0	0	0	0	0	0.0000	0.0000	0.0000	0.0000;
	79	0	0	9.16	-2	1.04	21.6	0	18	5.4	0	0	0	0	0	0	0	0	0	0	0	0.0000	0.0000	0.0000	0.0000;
	90	0.96	1.11	1.63	-0.36	1.04	3.84	1	3.2	0.96	0	0	0	0	0	0	0	0	0	0	0	0.0000	0.0000	0.0000	0.0000;
	91	1.5	2.55	2.55	-0.55	1.04	6	1	5	1.5	0	0	0	0	0	0	0	0	0	0	0	0.0000	0.0000	0.0000	0.0000;
	92	0	0	3.21	-0.7	1.04	7.56	0	6.3	1.89	0	0	0	0	0	0	0	0	0	0	0	0.0000	0.0000	0.0000	0.0000;
	94	18	2.01	8.39	-2.2	1.04	21.6	1	18	5.4	0	0	0	0	0	0	0	0	0	0	0	0.0000	0.0000	0.0000	0.0000;
	104	52	15.94	21.09	-14.26	1.04	118.8	1	99	29.7	0	0	0	0	0	0	0	0	0	0	0	0.0000	0.0000	0.0000	0.0000;
	105	63	23.82	42.17	-28.51	1.04	237.6	1	198	59.4	0	0	0	0	0	0	0	0	0	0	0	0.0000	0.0000	0.0000	0.0000;
	114	1.08	0.36	0.36	-0.24	1.04	2.04	1	1.7	0.51	0	0	0	0	0	0	0	0	0	0	0	0.0000	0.0000	0.0000	0.0000;
	115	75.12	31.7	31.95	-21.6	1.04	180	1	150	45	0	0	0	0	0	0	0	0	0	0	0	0.0000	0.0000	0.0000	0.0000;
	125	130.05	20.39	60.6	-15.87	1.04	156.06	1	130.05	39.02	0	0	0	0	0	0	0	0	0	0	0	0.0000	0.0000	0.0000	0.0000;
	126	130.05	30.35	60.6	-15.87	1.04	156.06	1	130.05	39.02	0	0	0	0	0	0	0	0	0	0	0	0.0000	0.0000	0.0000	0.0000;
	127	130.05	56.81	60.6	-15.87	1.04	156.06	1	130.05	39.02	0	0	0	0	0	0	0	0	0	0	0	0.0000	0.0000	0.0000	0.0000;
	135	216.77	53.47	208.02	-54.46	1.04	535.68	1	446.4	133.92	0	0	0	0	0	0	0	0	0	0	0	0.0000	0.0000	0.0000	0.0000;
	136	196.42	61.49	208.02	-54.46	1.04	535.68	1	446.4	133.92	0	0	0	0	0	0	0	0	0	0	0	0.0000	0.0000	0.0000	0.0000;
	147	42	21.41	21.41	-14.47	1.04	120.6	1	100.5	30.15	0	0	0	0	0	0	0	0	0	0	0	0.0000	0.0000	0.0000	0.0000;
	151	5.4	1.94	2.52	-0.66	1.04	6.48	1	5.4	1.62	0	0	0	0	0	0	0	0	0	0	0	0.0000	0.0000	0.0000	0.0000;
	152	77.22	11.66	35.99	-9.42	1.04	92.67	1	77.22	23.17	0	0	0	0	0	0	0	0	0	0	0	0.0000	0.0000	0.0000	0.0000;
	153	77.22	9.8	35.99	-9.42	1.04	92.67	1	77.22	23.17	0	0	0	0	0	0	0	0	0	0	0	0.0000	0.0000	0.0000	0.0000;
	154	77.22	13.47	35.99	-9.42	1.04	92.67	1	77.22	23.17	0	0	0	0	0	0	0	0	0	0	0	0.0000	0.0000	0.0000	0.0000;
	155	77.22	13.71	35.99	-9.42	1.04	92.67	1	77.22	23.17	0	0	0	0	0	0	0	0	0	0	0	0.0000	0.0000	0.0000	0.0000;
	161	0	0	70.55	-15.38	1.04	166.32	0	138.6	41.58	0	0	0	0	0	0	0	0	0	0	0	0.0000	0.0000	0.0000	0.0000;
	164	0	0	6.11	-1.33	1.04	14.4	0	12	3.6	0	0	0	0	0	0	0	0	0	0	0	0.0000	0.0000	0.0000	0.0000;
	165	0	0	13.23	-2.89	1.04	31.2	0	26	7.8	0	0	0	0	0	0	0	0	0	0	0	0.0000	0.0000	0.0000	0.0000;
	166	0	0	4.78	-1.04	1.04	11.28	0	9.4	2.82	0	0	0	0	0	0	0	0	0	0	0	0.0000	0.0000	0.0000	0.0000;
	167	2.82	4.78	4.78	-1.04	1.04	11.28	1	9.4	2.82	0	0	0	0	0	0	0	0	0	0	0	0.0000	0.0000	0.0000	0.0000;
	168	0	0	4.78	-1.04	1.04	11.28	0	9.4	2.82	0	0	0	0	0	0	0	0	0	0	0	0.0000	0.0000	0.0000	0.0000;
	169	0	0	4.78	-1.04	1.04	11.28	0	9.4	2.82	0	0	0	0	0	0	0	0	0	0	0	0.0000	0.0000	0.0000	0.0000;
	170	2.82	4.78	4.78	-1.04	1.04	11.28	1	9.4	2.82	0	0	0	0	0	0	0	0	0	0	0	0.0000	0.0000	0.0000	0.0000;
	182	17.5	8.16	8.16	-2.14	1.04	21	1	17.5	5.25	0	0	0	0	0	0	0	0	0	0	0	0.0000	0.0000	0.0000	0.0000;
	183	26.6	12.4	12.4	-3.25	1.04	31.92	1	26.6	7.98	0	0	0	0	0	0	0	0	0	0	0	0.0000	0.0000	0.0000	0.0000;
	189	569.13	56.23	209.45	-46.67	1.04	682.98	1	569.15	170.75	0	0	0	0	0	0	0	0	0	0	0	0.0000	0.0000	0.0000	0.0000;
	196	0	0	34.36	-7.49	1.04	81	0	67.5	20.25	0	0	0	0	0	0	0	0	0	0	0	0.0000	0.0000	0.0000	0.0000;
	197	0	0	34.36	-7.49	1.04	81	0	67.5	20.25	0	0	0	0	0	0	0	0	0	0	0	0.0000	0.0000	0.0000	0.0000;
];

%% branch data
%	fbus	tbus	r	x	b	rateA	rateB	rateC	ratio	angle	status	angmin	angmax	Pf	Qf	Pt	Qt	mu_Sf	mu_St	mu_angmin	mu_angmax
mpc.branch = [
	2	1	0.000673	0.003339	0	100	0	0	0	0	1	0	0	-10.9500	-3.1200	10.9500	3.1300	0.0000	0.0000	0.0000	0.0000;
	1	119	0.018542	0.119758	0.02285	221.1	0	0	0	0	1	0	0	35.0400	1.7700	-34.8100	-2.5500	0.0000	0.0000	0.0000	0.0000;
	124	1	0.005615	0.036268	0.00692	221.1	0	0	0	0	1	0	0	75.0900	15.5700	-74.7700	-14.1700	0.0000	0.0000	0.0000	0.0000;
	193	1	0.004258	0.027501	0.00525	221.1	0	0	0	0	1	0	0	-28.7300	-9.5300	28.7700	9.2700	0.0000	0.0000	0.0000	0.0000;
	4	3	0.000573	0.003303	0	100	0	0	0	0	1	0	0	-2.7200	-0.7700	2.7200	0.7700	0.0000	0.0000	0.0000	0.0000;
	57	3	0.008505	0.058098	0.00988	221.1	0	0	0	0	1	0	0	-24.2300	-5.0600	24.2800	4.4000	0.0000	0.0000	0.0000	0.0000;
	3	137	0.005889	0.038035	0.00726	221.1	0	0	0	0	1	0	0	-27.0000	-5.1800	27.0400	4.7200	0.0000	0.0000	0.0000	0.0000;
	6	5	0.000694	0.003337	0	100	0	0	0	0	1	0	0	-12.5000	-3.5600	12.5000	3.5700	0.0000	0.0000	0.0000	0.0000;
	48	5	0.006246	0.043513	0.00711	221.1	0	0	0	0	1	0	0	-12.8600	-4.8400	12.8700	4.1700	0.0000	0.0000	0.0000	0.0000;
	5	64	0.007877	0.054875	0.00897	221.1	0	0	0	0	1	0	0	-25.3700	-7.7400	25.4200	7.1600	0.0000	0.0000	0.0000	0.0000;
	8	7	0.000634	0.003189	0	100	0	0	0	0	1	0	0	-35.2000	-10.0300	35.2100	10.0800	0.0000	0.0000	0.0000	0.0000;
	7	86	0.003756	0.024259	0.00463	221.1	0	0	0	0	1	0	0	-22.1300	-4.7700	22.1500	4.4400	0.0000	0.0000	0.0000	0.0000;
	7	101	0.003597	0.023232	0.00443	221.1	0	0	0	0	1	0	0	-32.0600	-9.9700	32.1100	9.8000	0.0000	0.0000	0.0000	0.0000;
	7	148	0.008667	0.05598	0.01068	221.1	0	0	0	0	1	0	0	18.9800	4.6600	-18.9500	-5.4800	0.0000	0.0000	0.0000	0.0000;
	10	9	0.000585	0.003967	0	100	0	0	0	0	1	0	0	-63.2900	-18.0400	63.3200	18.2100	0.0000	0.0000	0.0000	0.0000;
	9	124	0.008069	0.055123	0.00938	221.1	0	0	0	0	1	0	0	-66.8400	-15.4300	67.2200	17.1000	0.0000	0.0000	0.0000	0.0000;
	131	9	0.004139	0.026732	0.0051	221.1	0	0	0	0	1	0	0	-2.0900	0.5800	2.0900	-1.0900	0.0000	0.0000	0.0000	0.0000;
	9	141	0.004446	0.03097	0.00506	221.1	0	0	0	0	1	0	0	9.0700	1.2200	-9.0700	-1.6900	0.0000	0.0000	0.0000	0.0000;
	9	193	0.003695	0.025244	0.00429	221.1	0	0	0	0	1	0	0	-7.6500	-2.9200	7.6500	2.5100	0.0000	0.0000	0.0000	0.0000;
	12	11	0.000534	0.003533	0	100	0	0	0	0	1	0	0	-0.4900	-0.1400	0.4900	0.1400	0.0000	0.0000	0.0000	0.0000;
	13	11	0.000619	0.003606	0	100	0	0	0	0	1	0	0	-4.0400	-1.1500	4.0400	1.1500	0.0000	0.0000	0.0000	0.0000;
	11	15	0.010408	0.06722	0.01282	221.1	0	0	0	0	1	0	0	-3.6800	-1.1600	3.6800	-0.2000	0.0000	0.0000	0.0000	0.0000;
	11	93	0.018394	0.128141	0.02095	221.1	0	0	0	0	1	0	0	12.0900	-1.9300	-12.0600	-0.1300	0.0000	0.0000	0.0000	0.0000;
	158	11	0.008519	0.058199	0.0099	221.1	0	0	0	0	1	0	0	12.9500	-2.7700	-12.9400	1.8000	0.0000	0.0000	0.0000	0.0000;
	15	14	0.000637	0.027526	0	300	0	0	1	0	1	0	0	-75.4100	11.7700	75.4500	-10.2800	0.0000	0.0000	0.0000	0.0000;
	14	121	0.007013	0.050098	0.09134	402.36	0	0	0	0	1	0	0	-58.3700	5.4500	58.6000	-13.5400	0.0000	0.0000	0.0000	0.0000;
	14	149	0.009133	0.065244	0.11895	402.36	0	0	0	0	1	0	0	-17.0800	4.8300	17.1100	-17.2000	0.0000	0.0000	0.0000	0.0000;
	16	15	0.000553	0.0032	0	100	0	0	0	0	1	0	0	-71.7000	-20.4400	71.7300	20.6000	0.0000	0.0000	0.0000	0.0000;
	18	17	0.000503	0.003926	0	100	0	0	0	0	1	0	0	-1.1400	-0.3300	1.1400	0.3300	0.0000	0.0000	0.0000	0.0000;
	19	17	0.000514	0.003079	0	100	0	0	0	0	1	0	0	-1.2300	-0.3500	1.2300	0.3500	0.0000	0.0000	0.0000	0.0000;
	20	17	0.000623	0.003339	0	100	0	0	0	0	1	0	0	-1.8100	-0.5200	1.8100	0.5200	0.0000	0.0000	0.0000	0.0000;
	21	17	0.00062	0.00394	0	100	0	0	0	0	1	0	0	-7.3800	-2.1000	7.3800	2.1100	0.0000	0.0000	0.0000	0.0000;
	109	17	0.009789	0.068198	0.01115	221.1	0	0	0	0	1	0	0	23.2400	2.4600	-23.1900	-3.2200	0.0000	0.0000	0.0000	0.0000;
	17	120	0.010316	0.070473	0.01199	221.1	0	0	0	0	1	0	0	11.6200	-0.0800	-11.6100	-1.0200	0.0000	0.0000	0.0000	0.0000;
	23	22	0.000616	0.003222	0	100	0	0	0	0	1	0	0	-2.2600	-0.6400	2.2600	0.6400	0.0000	0.0000	0.0000	0.0000;
	24	22	0.000687	0.003067	0	100	0	0	0	0	1	0	0	-3.8400	-1.0900	3.8400	1.0900	0.0000	0.0000	0.0000	0.0000;
	22	27	0.011379	0.073494	0.01402	221.1	0	0	0	0	1	0	0	3.1400	-2.0700	-3.1400	0.5800	0.0000	0.0000	0.0000	0.0000;
	158	22	0.012701	0.086769	0.01476	221.1	0	0	0	0	1	0	0	9.2600	-1.8400	-9.2500	0.3300	0.0000	0.0000	0.0000	0.0000;
	26	25	0.00061	0.003071	0	100	0	0	0	0	1	0	0	-2.1300	-0.6100	2.1300	0.6100	0.0000	0.0000	0.0000	0.0000;
	25	64	0.007643	0.053244	0.0087	221.1	0	0	0	0	1	0	0	-35.1000	-1.6600	35.1900	1.3700	0.0000	0.0000	0.0000	0.0000;
	199	25	0.009909	0.064003	0.01221	221.1	0	0	0	0	1	0	0	-32.8700	-1.6700	32.9700	1.0600	0.0000	0.0000	0.0000	0.0000;
	28	27	0.000587	0.003964	0	100	0	0	0	0	1	0	0	-3.7400	-1.0700	3.7400	1.0700	0.0000	0.0000	0.0000	0.0000;
	27	93	0.025172	0.175362	0.02867	221.1	0	0	0	0	1	0	0	7.2200	-1.8300	-7.2100	-1.1500	0.0000	0.0000	0.0000	0.0000;
	27	158	0.020429	0.131945	0.02517	221.1	0	0	0	0	1	0	0	-7.8200	0.1900	7.8300	-2.8100	0.0000	0.0000	0.0000	0.0000;
	30	29	0.000694	0.003131	0	100	0	0	0	0	1	0	0	-87.6200	-24.9700	87.6800	25.2300	0.0000	0.0000	0.0000	0.0000;
	124	29	0.005561	0.038742	0.00633	221.1	0	0	0	0	1	0	0	58.6700	16.4300	-58.4700	-15.6400	0.0000	0.0000	0.0000	0.0000;
	29	140	0.007895	0.055004	0.00899	221.1	0	0	0	0	1	0	0	-29.2100	-9.5900	29.2900	9.2000	0.0000	0.0000	0.0000	0.0000;
	32	31	0.000667	0.003884	0	100	0	0	0	0	1	0	0	-0.7000	-0.2000	0.7000	0.2000	0.0000	0.0000	0.0000	0.0000;
	33	31	0.000528	0.003639	0	100	0	0	0	0	1	0	0	-8.8200	-2.5100	8.8200	2.5200	0.0000	0.0000	0.0000	0.0000;
	177	31	0.008406	0.05856	0.00957	221.1	0	0	0	0	1	0	0	11.0800	11.5900	-11.0600	-12.3900	0.0000	0.0000	0.0000	0.0000;
	192	31	0.008088	0.05525	0.0094	221.1	0	0	0	0	1	0	0	-1.5300	-10.5500	1.5400	9.6800	0.0000	0.0000	0.0000	0.0000;
	35	34	0.000575	0.003674	0	100	0	0	0	0	1	0	0	-33.2600	-9.4800	33.2700	9.5200	0.0000	0.0000	0.0000	0.0000;
	34	54	0.006268	0.042819	0.00729	221.1	0	0	0	0	1	0	0	-62.2200	-14.2600	62.4700	15.1800	0.0000	0.0000	0.0000	0.0000;
	34	137	0.006911	0.044639	0.00852	221.1	0	0	0	0	1	0	0	28.9600	4.7400	-28.9000	-5.2500	0.0000	0.0000	0.0000	0.0000;
	37	36	0.000552	0.003328	0	100	0	0	0	0	1	0	0	-4.8900	-1.3900	4.8900	1.3900	0.0000	0.0000	0.0000	0.0000;
	38	36	0.00067	0.003511	0	100	0	0	0	0	1	0	0	-40.8100	-11.6300	40.8200	11.6900	0.0000	0.0000	0.0000	0.0000;
	58	36	0.010889	0.07439	0.01266	221.1	0	0	0	0	1	0	0	6.5900	8.0800	-6.5800	-9.2900	0.0000	0.0000	0.0000	0.0000;
	83	36	0.009615	0.066986	0.01095	221.1	0	0	0	0	1	0	0	39.2800	3.7100	-39.1300	-3.8000	0.0000	0.0000	0.0000	0.0000;