function mpc = case2383wp
%CASE2383WP  Power flow data for Polish system - winter 1999-2000 peak.
%   Please see CASEFORMAT for details on the case file format.
%
%   This case represents the Polish 400, 220 and 110 kV networks during
%   winter 1999-2000 peak conditions. It is part of the 7500+ bus
%   Europen UCTE system. To decrease the number of buses, the tie lines
%   to foreign networks were replaced by artificial load or generator
%   buses (180-186). Multiple generators at a bus have been aggregated.
%   Generators that are not centrally dispatchable in the Polish energy
%   market are given a cost of zero.
%
%   This data was graciously provided by, and is distributed with the
%   permission of, Roman Korab <roman.korab@polsl.pl>.

%   MATPOWER

%% MATPOWER Case Format : Version 2
mpc.version = '2';

%%-----  Power Flow Data  -----%%
%% system MVA base
mpc.baseMVA = 100;

%% bus data
%	bus_i	type	Pd	Qd	Gs	Bs	area	Vm	Va	baseKV	zone	Vmax	Vmin
mpc.bus = [
	1	1	0	0	0	0	1	1.0945877	-1.4947677	220	1	1.11	0.95;
	2	1	0	0	0	0	1	1.0853611	-1.0101313	220	1	1.11	0.95;
	3	1	0	0	0	0	1	1.0745702	-26.208185	220	1	1.11	0.95;
	4	1	0	0	0	0	1	1.0714122	-8.5164763	220	1	1.11	0.95;
	5	1	0	0	0	0	1	1.0665303	-18.99745	220	1	1.11	0.95;
	6	1	0	0	0	0	1	1.0235863	-13.822343	400	1	1.05	0.95;
	7	1	0	0	0	0	1	1.0597742	-21.443703	220	1	1.11	0.95;
	8	1	0	0	0	0	1	1.0274658	-10.380289	400	1	1.05	0.95;
	9	1	0	0	0	0	1	1.0356969	-16.876105	400	1	1.05	0.95;
	10	2	12.23	9	0	0	1	1.1082311	-20.649904	220	1	1.11	0.95;
	11	1	0	0	0	0	1	1.077772	-7.0641396	220	1	1.11	0.95;
	12	1	0	0	0	0	1	1.0668445	-23.917665	220	1	1.11	0.95;
	13	1	0	0	0	0	1	1.0651982	-21.489714	220	1	1.11	0.95;
	14	1	0	0	0	0	1	1.0663588	-5.069768	220	1	1.11	0.95;
	15	1	0	0	0	0	1	1.0094205	-15.318814	400	1	1.05	0.95;
	16	2	54.88	100	0	0	1	1.0974008	-0.98470838	220	1	1.11	0.95;
	17	2	77	150	0	0	1	1.0910267	-0.14840674	220	1	1.11	0.95;
	18	3	153	350	0	0	1	1.0337129	0	400	1	1.05	0.95;
	19	1	0	0	0	0	1	1.0659295	-22.685677	220	1	1.11	0.95;
	20	1	0	0	0	0	1	1.0371271	-1.9368717	400	1	1.05	0.95;
	21	1	0	0	0	0	1	1.0594484	-21.874798	220	1	1.11	0.95;
	22	1	0	0	0	0	1	1.0814061	-12.38874	220	1	1.11	0.95;
	23	1	0	0	0	0	1	1.0623561	-16.684586	220	2	1.11	0.95;
	24	1	0	0	0	0	1	1.0544773	-12.101862	220	2	1.11	0.95;
	25	1	0	0	0	0	1	1.0566312	-10.623758	220	2	1.11	0.95;
	26	1	0	0	0	0	1	1.0514089	-19.520072	220	2	1.11	0.95;
	27	1	0	0	0	0	1	1.065879	-10.248111	220	2	1.11	0.95;
	28	1	0	0	0	0	1	1.0658528	-10.243115	220	2	1.11	0.95;
	29	2	25.98	60	0	0	1	1.0967104	-15.340069	220	2	1.11	0.95;
	30	2	25.98	60	0	0	1	1.0967037	-15.340793	220	2	1.11	0.95;
	31	2	20.98	50	0	0	1	1.0214422	-10.730991	400	2	1.05	0.95;
	32	1	0	0	0	0	1	1.0214388	-10.770221	400	2	1.05	0.95;
	33	1	0	0	0	0	1	1.0603418	-11.007759	220	2	1.11	0.95;
	34	1	0	0	0	0	1	1.0437449	-10.313949	400	2	1.05	0.95;
	35	1	0	0	0	0	1	1.0437713	-10.321962	400	2	1.05	0.95;
	36	1	0	0	0	0	1	1.0036235	-14.019908	400	2	1.05	0.95;
	37	1	0	0	0	0	1	1.0617538	-17.65358	220	2	1.11	0.95;
	38	1	0	0	0	0	1	1.0617576	-17.652543	220	2	1.11	0.95;
	39	1	0	0	0	0	1	1.0154269	-9.4424041	400	2	1.05	0.95;
	40	1	0	0	0	0	1	1.0154039	-9.4320741	400	2	1.05	0.95;
	41	2	11.99	30	0	0	1	1.0608776	-8.4979859	220	2	1.11	0.95;
	42	2	11.99	30	0	0	1	1.0608614	-8.5104656	220	2	1.11	0.95;
	43	2	23.98	60	0	0	1	1.0229141	-6.9130429	400	2	1.05	0.95;
	44	2	23.98	60	0	0	1	1.0229414	-6.9257613	400	2	1.05	0.95;
	45	2	159.84	75	0	0	1	1.0792177	-16.289871	220	2	1.11	0.95;
	46	1	0	0	0	0	1	1.0792304	-16.288302	220	2	1.11	0.95;
	47	1	0	0	0	0	1	1.0601105	-10.892212	220	2	1.11	0.95;
	48	1	0	0	0	0	1	1.0778118	-15.293456	220	2	1.11	0.95;
	49	1	0	0	0	0	1	1.0778399	-15.297932	220	2	1.11	0.95;
	50	1	0	0	0	0	1	1.0308481	-8.5192355	400	2	1.05	0.95;
	51	1	0	0	0	0	1	1.0309346	-8.5378387	400	2	1.05	0.95;
	52	1	0	0	0	0	1	1.0531367	-13.126893	220	2	1.11	0.95;
	53	1	0	0	0	0	1	1.0551341	-13.005169	220	2	1.11	0.95;
	54	1	0	0	0	0	1	1.056839	-10.553596	220	2	1.11	0.95;
	55	1	0	0	0	0	1	1.0666858	-16.701687	220	2	1.11	0.95;
	56	1	0	0	0	0	1	1.0801732	-5.1254995	220	3	1.11	0.95;
	57	1	22.98	10.96	0	0	1	1.0788131	-7.2859357	220	3	1.11	0.95;
	58	1	21.98	5.79	0	0	1	1.079041	-7.2859427	220	3	1.11	0.95;
	59	1	0	0	0	0	1	1.1053709	0.46680305	220	3	1.11	0.95;
	60	1	0	0	0	0	1	1.1034167	-3.8522131	220	3	1.11	0.95;
	61	1	0	0	0	0	1	1.1084574	2.0938304	220	3	1.11	0.95;
	62	1	0	0	0	0	1	1.1084386	2.0954656	220	3	1.11	0.95;
	63	2	37.37	52.69	0	0	1	1.11	0.81330015	220	3	1.11	0.95;
	64	2	35.37	55.32	0	0	1	1.1092626	0.64640274	220	3	1.11	0.95;
	65	1	13.39	2.02	0	0	1	1.1032007	-1.0285054	220	3	1.11	0.95;
	66	1	0	0	0	0	1	1.1002514	-8.6354732	220	3	1.11	0.95;
	67	2	60.4	92.1	0	0	1	1.05	-6.5572721	400	3	1.05	0.95;
	68	1	0	0	0	0	1	1.1001654	-6.9023386	220	3	1.11	0.95;
	69	1	0	0	0	0	1	1.1069854	-0.83820638	220	3	1.11	0.95;
	70	1	0	0	0	0	1	1.0848694	-4.3023178	220	3	1.11	0.95;
	71	1	0	0	0	0	1	1.0989066	-1.837146	220	3	1.11	0.95;
	72	1	0	0	0	0	1	1.0989066	-1.837146	220	3	1.11	0.95;
	73	1	0	0	0	0	1	1.0878356	-3.6331435	220	3	1.11	0.95;
	74	1	0	0	0	0	1	1.0848991	-4.5132859	220	3	1.11	0.95;
	75	1	0	0	0	0	1	1.0319269	-1.6723208	400	3	1.05	0.95;
	76	1	0	0	0	0	1	1.031903	-1.6782928	400	3	1.05	0.95;
	77	1	0	0	0	0	1	1.0986956	-2.26735	220	3	1.11	0.95;
	78	1	0	0	0	0	1	1.0966324	-4.9713203	220	3	1.11	0.95;
	79	1	0	0	0	0	1	1.0987986	-1.276796	220	3	1.11	0.95;
	80	1	0	0	0	0	1	1.0794572	-7.2345064	220	3	1.11	0.95;
	81	1	0	0	0	0	1	1.0794748	-7.2341604	220	3	1.11	0.95;
	82	1	0	0	0	0	1	1.1039055	1.0127598	220	3	1.11	0.95;
	83	2	15.99	22.97	0	0	1	1.1089547	-0.82047491	220	3	1.11	0.95;
	84	2	15.79	22.27	0	0	1	1.1090726	-0.82183963	220	3	1.11	0.95;
	85	2	9.99	17.01	0	0	1	1.1017195	-2.2938246	220	3	1.11	0.95;
	86	2	9.99	16.66	0	0	1	1.1016369	-2.29227	220	3	1.11	0.95;
	87	1	11.09	16.22	0	0	1	1.0893689	-3.1476165	220	3	1.11	0.95;
	88	1	0	0	0	0	1	1.0893851	-3.1479875	220	3	1.11	0.95;
	89	1	0	0	0	0	1	1.1000808	-1.2380944	220	3	1.11	0.95;
	90	1	0	0	0	0	1	1.1042303	-1.7979475	220	3	1.11	0.95;
	91	1	0	0	0	0	1	1.1025585	-0.66612181	220	3	1.11	0.95;
	92	1	0	0	0	0	1	1.0237095	-5.5065252	400	3	1.05	0.95;
	93	2	9.99	16.39	0	0	1	1.1056302	-0.2952057	220	3	1.11	0.95;
	94	1	0	0	0	0	1	1.1056158	-0.29680978	220	3	1.11	0.95;
	95	2	6.89	8.15	0	0	1	1.1075265	-0.4539646	220	3	1.11	0.95;
	96	1	0	0	0	0	1	1.1075224	-0.45839832	220	3	1.11	0.95;
	97	2	8.69	5.26	0	0	1	1.0967425	-4.8472969	220	3	1.11	0.95;
	98	1	0	0	0	0	1	1.0231775	-7.554412	400	3	1.05	0.95;
	99	1	0	0	0	0	1	1.0232586	-7.5444428	400	3	1.05	0.95;
	100	1	0	0	0	0	1	1.0319735	-5.1585252	400	3	1.05	0.95;
	101	1	0	0	0	0	1	1.0319919	-5.1492029	400	3	1.05	0.95;
	102	1	0	0	0	0	1	1.1020054	-1.14745	220	3	1.11	0.95;
	103	2	18.09	23.76	0	0	1	1.1067084	-1.913684	220	3	1.11	0.95;
	104	2	33.68	46.11	0	0	1	1.106757	-1.9078196	220	3	1.11	0.95;
	105	2	33.78	62.95	0	0	1	1.0166743	-4.8853891	400	3	1.05	0.95;
	106	1	0	0	0	0	1	1.0168266	-4.8990837	400	3	1.05	0.95;
	107	1	0	0	0	0	1	1.0835964	-4.5876186	220	3	1.11	0.95;
	108	1	0	0	0	0	1	1.0853205	-4.4168627	220	3	1.11	0.95;
	109	2	1	22.36	0	0	1	1.11	2.8143573	220	3	1.11	0.95;
	110	2	1	22.18	0	0	1	1.11	2.8158748	220	3	1.11	0.95;
	111	2	26.49	18	0	0	1	1.1066085	-14.342043	220	4	1.11	0.95;
	112	1	0	0	0	0	1	1.1064908	-14.335874	220	4	1.11	0.95;
	113	1	0	0	0	0	1	1.0622147	-26.875135	220	4	1.11	0.95;
	114	1	0	0	0	0	1	1.0754961	-26.337792	220	4	1.11	0.95;
	115	1	0	0	0	0	1	0.98336245	-20.290762	400	4	1.05	0.95;
	116	1	0	0	0	0	1	0.9833576	-20.281214	400	4	1.05	0.95;
	117	1	0	0	0	0	1	1.0726984	-30.012965	220	4	1.11	0.95;
	118	1	0	0	0	0	1	1.0671655	-38.724474	220	4	1.11	0.95;
	119	1	0	0	0	0	1	1.0671655	-38.724474	220	4	1.11	0.95;
	120	1	0	0	0	0	1	1.0513316	-37.190715	220	4	1.11	0.95;
	121	1	0	0	0	0	1	1.0699553	-26.91977	220	4	1.11	0.95;
	122	1	0	0	0	0	1	1.0699553	-26.91977	220	4	1.11	0.95;
	123	2	5.5	7	0	0	1	1.1096575	-19.400308	220	4	1.11	0.95;
	124	2	8.79	17	0	0	1	1.1096796	-19.394703	220	4	1.11	0.95;
	125	2	35.7	18.3	0	0	1	1.1062235	-35.575758	220	4	1.11	0.95;
	126	1	25.28	15.9	0	0	1	1.1060523	-35.563149	220	4	1.11	0.95;
	127	2	25.71	15.3	0	0	1	1.0330077	-27.760745	400	4	1.05	0.95;
	128	1	0	0	0	0	1	1.0329471	-27.768773	400	4	1.05	0.95;
	129	1	0	0	0	0	1	1.0451738	-32.578133	220	4	1.11	0.95;
	130	1	0	0	0	0	1	1.0345938	-33.954129	220	4	1.11	0.95;
	131	2	68.67	70	0	0	1	1.0993161	-24.081795	220	4	1.11	0.95;
	132	2	33	45	0	0	1	1.0994336	-24.0968	220	4	1.11	0.95;
	133	1	0	0	0	0	1	0.99528738	-19.61073	400	4	1.05	0.95;
	134	1	0	0	0	0	1	0.99528984	-19.609417	400	4	1.05	0.95;
	135	1	0	0	0	0	1	1.0672352	-38.652391	220	4	1.11	0.95;
	136	1	0	0	0	0	1	1.0672352	-38.652391	220	4	1.11	0.95;
	137	1	0	0	0	0	1	1.0000355	-16.649236	400	4	1.05	0.95;
	138	1	0	0	0	0	1	1.0000355	-16.649236	400	4	1.05	0.95;
	139	2	33.2	22.6	0	0	1	1.11	-19.694688	220	4	1.11	0.95;
	140	2	29.23	19.6	0	0	1	1.1099933	-19.702053	220	4	1.11	0.95;
	141	1	0	0	0	0	1	1.048715	-35.311344	220	4	1.11	0.95;
	142	1	0	0	0	0	1	1.064119	-38.929037	220	4	1.11	0.95;
	143	1	0	0	0	0	1	1.0713386	-31.500664	220	4	1.11	0.95;
	144	1	0	0	0	0	1	1.0712535	-31.499755	220	4	1.11	0.95;
	145	1	0	0	0	0	1	0.97659289	-31.179217	400	4	1.05	0.95;
	146	1	0	0	0	0	1	0.97659289	-31.179217	400	4	1.05	0.95;
	147	1	0	0	0	0	1	1.0443448	-30.604356	220	4	1.11	0.95;
	148	1	0	0	0	0	1	1.0443916	-30.598683	220	4	1.11	0.95;
	149	1	0	0	0	0	1	1.0678968	-32.197135	220	4	1.11	0.95;
	150	1	0	0	0	0	1	1.0650767	-26.052001	220	4	1.11	0.95;
	151	1	0	0	0	0	1	1.0651101	-26.059553	220	4	1.11	0.95;
	152	1	0	0	0	0	1	1.0585155	-22.471056	220	4	1.11	0.95;
	153	1	0	0	0	0	1	1.0585155	-22.471056	220	4	1.11	0.95;
	154	1	0	0	0	0	1	1.0281414	-32.398849	220	4	1.11	0.95;
	155	1	0	0	0	0	1	1.0546513	-27.826247	220	5	1.11	0.95;
	156	1	0	0	0	0	1	1.11	-30.199576	220	5	1.11	0.95;
	157	1	0	0	0	0	1	1.0249742	-28.306241	400	5	1.05	0.95;
	158	1	0	0	0	0	1	1.0249445	-28.299084	400	5	1.05	0.95;
	159	1	0	0	0	0	1	1.0281885	-25.15157	400	5	1.05	0.95;
	160	1	0	0	0	0	1	1.0282505	-25.159467	400	5	1.05	0.95;
	161	1	0	0	0	0	1	1.0551509	-31.094903	220	5	1.11	0.95;
	162	1	0	0	0	0	1	1.0551612	-31.095945	220	5	1.11	0.95;
	163	1	0	0	0	0	1	1.0871116	-28.613244	220	5	1.11	0.95;
	164	1	0	0	0	0	1	1.0870899	-28.614645	220	5	1.11	0.95;
	165	1	0	0	0	0	1	1.0015127	-22.606405	400	5	1.05	0.95;
	166	1	0	0	0	0	1	1.0669085	-27.062976	220	5	1.11	0.95;
	167	1	0	0	0	0	1	1.0669473	-27.061011	220	5	1.11	0.95;
	168	1	0	0	0	0	1	1.0301024	-26.893903	400	5	1.05	0.95;
	169	1	0	0	0	0	1	1.0300885	-26.900803	400	5	1.05	0.95;
	170	1	0	0	0	0	1	1.0558357	-27.940656	220	5	1.11	0.95;
	171	1	0	0	0	0	1	1.0558643	-27.937264	220	5	1.11	0.95;
	172	1	0	0	0	0	1	1.0622074	-29.119619	220	5	1.11	0.95;
	173	1	0	0	0	0	1	1.0621703	-29.117898	220	5	1.11	0.95;
	174	1	0	0	0	0	1	1.0599592	-26.90187	220	5	1.11	0.95;
	175	1	0	0	0	0	1	1.0599468	-26.909123	220	5	1.11	0.95;
	176	2	0	40	0	0	1	1.0312974	-23.918174	400	5	1.05	0.95;
	177	2	0	40	0	0	1	1.0314652	-23.915354	400	5	1.05	0.95;
	178	1	0	0	0	0	1	1.0784273	-32.277798	220	5	1.11	0.95;
	179	1	0	0	0	0	1	1.0784605	-32.27305	220	5	1.11	0.95;
	180	2	339.85	49.6	0	0	2	1.0088011	-7.67851	400	6	1.05	0.95;
	181	2	0	0	0	0	3	1.107243	-9.829618	220	6	1.11	0.95;
	182	2	0	0	0	0	5	0.99674384	-19.315074	400	6	1.05	0.95;
	183	1	150	0	0	0	3	1.05	-11.249574	400	6	1.05	0.95;
	184	2	317.34	50.3	0	0	2	1.0968373	-4.7574182	220	6	1.11	0.95;
	185	2	362.43	36.7	0	0	2	1.0079864	-8.4602128	400	6	1.05	0.95;
	186	2	33.33	1	0	0	5	1.1085323	-35.707557	220	6	1.11	0.95;
	187	1	7.12	1.5	0	0	1	1.0661462	-25.696348	110	1	1.12	0.95;
	188	1	7.63	1	0	0	1	1.0417885	-32.262122	110	1	1.12	0.95;
	189	1	9.77	8.7	0	0	1	0.99718305	-29.5143	110	1	1.12	0.95;
	190	1	6.12	1.5	0	0	1	1.1039302	-5.684507	110	1	1.12	0.95;
	191	1	6.12	1.6	0	0	1	1.0850303	-6.8881668	110	1	1.12	0.95;
	192	2	30.56	12	0	0	1	1.12	-22.081124	110	1	1.12	0.95;
	193	1	15.28	3	0	0	1	1.1188593	-21.954733	110	1	1.12	0.95;
	194	1	0	0	0	0	1	1.1185785	-22.247684	110	1	1.12	0.95;
	195	1	8.14	2	0	0	1	1.0830451	-26.733431	110	1	1.12	0.95;
	196	2	6.92	1.5	0	0	1	1.0192036	-33.404165	110	1	1.12	0.95;
	197	1	6.92	1.5	0	0	1	1.0731126	-15.402964	110	1	1.12	0.95;
	198	2	12.32	1.7	0	0	1	1.0753335	-26.893503	110	1	1.12	0.95;
	199	1	1.43	0.5	0	0	1	1.1078311	-8.269607	110	1	1.12	0.95;
	200	1	1.08	0.5	0	0	1	1.0976338	-25.949869	110	1	1.12	0.95;
	201	1	5.61	0.5	0	0	1	1.0920272	-27.749079	110	1	1.12	0.95;
	202	1	18.34	2	0	0	1	1.0941294	-23.627445	110	1	1.12	0.95;
	203	1	11.1	1.6	0	0	1	1.0773981	-27.109997	110	1	1.12	0.95;
	204	1	0	0	0	0	1	1.117645	-14.002284	110	1	1.12	0.95;
	205	2	6.92	2	0	0	1	1.1197782	-12.024748	110	1	1.12	0.95;
	206	1	11.2	1	0	0	1	1.0639718	-27.700762	110	1	1.12	0.95;
	207	1	7.32	1.6	0	0	1	1.0866742	-6.6763857	110	1	1.12	0.95;
	208	1	-7.32	-4.5	0	0	1	1.0817502	-14.987829	110	1	1.12	0.95;
	209	1	9.36	0.8	0	0	1	1.0822683	-28.304157	110	1	1.12	0.95;
	210	1	15.18	4.4	0	0	1	1.118031	-10.834751	110	1	1.12	0.95;
	211	1	8.75	0.2	0	0	1	1.0813257	-28.413546	110	1	1.12	0.95;
	212	1	10.18	1.5	0	0	1	1.0900681	-25.3979	110	1	1.12	0.95;
	213	2	-2.04	-1	0	0	1	1.0695123	-27.569424	110	1	1.12	0.95;
	214	1	12.02	0.5	0	0	1	1.0704783	-30.720759	110	1	1.12	0.95;
	215	1	6.92	2	0	0	1	1.1170154	-11.51124	110	1	1.12	0.95;
	216	1	8.85	0.5	0	0	1	1.1176949	-6.4597806	110	1	1.12	0.95;
	217	1	1.94	0.4	0	0	1	1.1195798	-21.183041	110	1	1.12	0.95;
	218	1	12.22	1.5	0	0	1	1.0778381	-29.362408	110	1	1.12	0.95;
	219	1	2.55	0.5	0	0	1	1.092836	-28.058717	110	1	1.12	0.95;
	220	1	2.55	0.5	0	0	1	1.0639874	-29.34072	110	1	1.12	0.95;
	221	1	4.08	0.5	0	0	1	1.0233157	-34.819624	110	1	1.12	0.95;
	222	1	6.53	0.4	0	0	1	1.0999519	-24.80992	110	1	1.12	0.95;
	223	1	18.65	4	0	0	1	1.0802245	-20.784966	110	1	1.12	0.95;
	224	1	19.86	2.5	0	0	1	1.0660683	-27.687918	110	1	1.12	0.95;
	225	1	17.3	2	0	0	1	1.0456739	-32.542949	110	1	1.12	0.95;
	226	1	24.44	1.5	0	0	1	1.0908182	-27.616309	110	1	1.12	0.95;
	227	1	5.61	1	0	0	1	1.0912032	-27.749985	110	1	1.12	0.95;
	228	1	11.4	1.1	0	0	1	1.0814662	-7.3292751	110	1	1.12	0.95;
	229	1	11	2.7	0	0	1	1.1053622	-15.168081	110	1	1.12	0.95;
	230	1	7.63	1	0	0	1	1.0196257	-35.477572	110	1	1.12	0.95;
	231	1	7.94	1.1	0	0	1	1.0956602	-24.169311	110	1	1.12	0.95;
	232	1	7.94	1.1	0	0	1	1.0659828	-24.648194	110	1	1.12	0.95;
	233	1	1.84	0.8	0	0	1	1.0772286	-29.346079	110	1	1.12	0.95;
	234	1	33.46	28	0	0	1	1.0866321	-6.4435989	110	1	1.12	0.95;
	235	1	33.76	28	0	0	1	1.092194	-4.7499346	110	1	1.12	0.95;
	236	1	1.02	0.5	0	0	1	1.0636366	-27.435845	110	1	1.12	0.95;
	237	1	13.95	1.7	0	0	1	1.0824507	-28.838877	110	1	1.12	0.95;
	238	1	9.98	1	0	0	1	1.1060729	-24.036591	110	1	1.12	0.95;
	239	1	15.28	1.5	0	0	1	1.0962692	-23.844155	110	1	1.12	0.95;
	240	1	11.2	1.5	0	0	1	1.026604	-34.175106	110	1	1.12	0.95;
	241	1	10.18	3	0	0	1	1.061752	-26.725112	110	1	1.12	0.95;
	242	1	1.22	0.1	0	0	1	1.0683021	-26.898112	110	1	1.12	0.95;
	243	1	0	0	0	0	1	1.1185057	-22.822079	110	1	1.12	0.95;
	244	1	1.02	0	0	0	1	1.1077587	-23.662685	110	1	1.12	0.95;
	245	1	12.12	5.4	0	0	1	1.1191336	-12.718707	110	1	1.12	0.95;
	246	1	-8.14	-3.6	0	0	1	1.1196966	-10.798388	110	1	1.12	0.95;
	247	1	11.2	1.5	0	0	1	1.0768511	-15.10413	110	1	1.12	0.95;
	248	1	3.06	0.5	0	0	1	1.1129597	-23.088953	110	1	1.12	0.95;
	249	1	9.16	0	0	0	1	1.103669	-24.282994	110	1	1.12	0.95;
	250	1	27.71	3	0	0	1	1.1003945	-24.225221	110	1	1.12	0.95;
	251	1	21.38	4	0	0	1	1.0908748	-4.9788547	110	1	1.12	0.95;
	252	1	21.38	4	0	0	1	1.0814312	-7.2754521	110	1	1.12	0.95;
	253	1	14.87	4.3	0	0	1	1.1175692	-12.568614	110	1	1.12	0.95;
	254	1	19.86	3.5	0	0	1	1.1060068	-14.397148	110	1	1.12	0.95;
	255	1	10.18	1	0	0	1	1.0921847	-27.219257	110	1	1.12	0.95;
	256	1	5.61	0	0	0	1	1.1076624	-24.330906	110	1	1.12	0.95;
	257	1	7.12	0.2	0	0	1	1.0632546	-26.996725	110	1	1.12	0.95;
	258	1	4.08	0.3	0	0	1	1.0872657	-18.049204	110	1	1.12	0.95;
	259	1	20.87	4.2	0	0	1	1.0976328	-24.505086	110	1	1.12	0.95;
	260	1	10.69	1.5	0	0	1	1.1029976	-23.769387	110	1	1.12	0.95;
	261	1	7.94	2	0	0	1	1.1187988	-10.733257	110	1	1.12	0.95;
	262	1	0.2	0	0	0	1	1.0975824	-25.090619	110	1	1.12	0.95;
	263	1	5.3	1	0	0	1	1.0555244	-25.922198	110	1	1.12	0.95;
	264	2	12.22	1	0	0	1	1.073985	-29.489889	110	1	1.12	0.95;
	265	1	12.22	1	0	0	1	1.0888117	-17.881936	110	1	1.12	0.95;
	266	1	8.34	1.6	0	0	1	1.0955294	-11.833681	110	1	1.12	0.95;
	267	1	10.38	3	0	0	1	1.1161032	-13.886216	110	1	1.12	0.95;
	268	1	14.87	3.7	0	0	1	1.118361	-12.133304	110	1	1.12	0.95;
	269	2	15.28	4	0	0	1	1.1075519	-22.973163	110	1	1.12	0.95;
	270	1	3.67	0.5	0	0	1	1.1189683	-10.913162	110	1	1.12	0.95;
	271	1	3.67	0.5	0	0	1	1.0978755	-9.330408	110	1	1.12	0.95;
	272	1	9.26	3	0	0	1	1.1188983	-10.720152	110	1	1.12	0.95;
	273	1	12.93	3.7	0	0	1	1.1168094	-11.490953	110	1	1.12	0.95;
	274	1	25.67	7.4	0	0	1	1.1177792	-12.661531	110	1	1.12	0.95;
	275	1	23.22	6.7	0	0	1	1.1158209	-13.965196	110	1	1.12	0.95;
	276	1	14.26	5.1	0	0	1	1.1138139	-13.110911	110	1	1.12	0.95;
	277	2	52.14	20.4	0	0	1	1.1180055	-13.145767	110	1	1.12	0.95;
	278	2	24.95	9.7	0	0	1	1.1171907	-13.892303	110	1	1.12	0.95;
	279	2	24.95	9.7	0	0	1	1.12	-11.624943	110	1	1.12	0.95;
	280	1	0	0	0	0	1	1.1159999	-13.914997	110	1	1.12	0.95;
	281	2	30.66	11.9	0	0	1	1.12	-12.590433	110	1	1.12	0.95;
	282	2	13.14	5.1	0	0	1	1.1195151	-10.80347	110	1	1.12	0.95;
	283	1	17.02	0.2	0	0	1	1.0988855	-16.441568	110	1	1.12	0.95;
	284	1	2.55	0.5	0	0	1	1.1043208	-23.511642	110	1	1.12	0.95;
	285	1	8.14	1.5	0	0	1	1.0723087	-27.610238	110	1	1.12	0.95;
	286	1	29.75	4.1	0	0	1	1.0692724	-27.840027	110	1	1.12	0.95;
	287	1	12.22	4	0	0	1	1.060725	-26.63256	110	1	1.12	0.95;
	288	1	13.14	3.8	0	0	1	1.1176508	-12.577146	110	1	1.12	0.95;
	289	2	21.28	6.1	0	0	1	1.1166798	-12.884006	110	1	1.12	0.95;
	290	1	17.32	3	0	0	1	1.1019475	-24.567866	110	1	1.12	0.95;
	291	1	16.81	5.4	0	0	1	1.1187962	-10.843463	110	1	1.12	0.95;
	292	1	17.32	5	0	0	1	1.1165148	-13.262597	110	1	1.12	0.95;
	293	1	7.43	2.1	0	0	1	1.1167873	-13.391274	110	1	1.12	0.95;
	294	2	15.28	3	0	0	1	1.1033026	-24.305673	110	1	1.12	0.95;
	295	1	21.28	3.4	0	0	1	1.0661075	-28.582212	110	1	1.12	0.95;
	296	1	17.63	5.1	0	0	1	1.116764	-13.399623	110	1	1.12	0.95;
	297	1	8.55	2	0	0	1	1.1024229	-12.239101	110	1	1.12	0.95;
	298	1	7.02	1.6	0	0	1	1.1009364	-12.378007	110	1	1.12	0.95;
	299	1	48.06	13.8	0	0	1	1.1138978	-13.105695	110	1	1.12	0.95;
	300	1	21.38	9	0	0	1	1.050035	-23.994533	110	1	1.12	0.95;
	301	1	6.22	1.3	0	0	1	1.102285	-15.393166	110	1	1.12	0.95;
	302	1	6.12	1.3	0	0	1	1.065219	-28.647386	110	1	1.12	0.95;
	303	1	6.32	0.5	0	0	1	1.061327	-32.191815	110	1	1.12	0.95;
	304	1	17.83	5.1	0	0	1	1.116657	-11.353691	110	1	1.12	0.95;
	305	1	7.53	1.1	0	0	1	1.0881007	-25.672689	110	1	1.12	0.95;
	306	1	21.38	4	0	0	1	1.1183727	-22.894328	110	1	1.12	0.95;
	307	1	18.34	4	0	0	1	1.0623487	-27.252341	110	1	1.12	0.95;
	308	1	5.1	0	0	0	1	1.1090605	-23.154089	110	1	1.12	0.95;
	309	1	0	0	0	0	1	1.1186212	-22.443695	110	1	1.12	0.95;
	310	1	0	0	0	0	1	1.0694122	-22.883222	110	1	1.12	0.95;
	311	1	32.4	5.7	0	0	1	1.0588799	-23.785657	110	1	1.12	0.95;
	312	1	0	0	0	0	1	1.0588908	-23.7857	110	1	1.12	0.95;
	313	1	7.12	0.5	0	0	1	1.0433682	-34.133062	110	1	1.12	0.95;
	314	2	7.73	1.5	0	0	1	1.0875227	-24.261155	110	1	1.12	0.95;
	315	1	9.47	0	0	0	1	1.0714939	-30.540921	110	1	1.12	0.95;
	316	1	16.2	4	0	0	1	1.1188768	-12.235334	110	1	1.12	0.95;
	317	1	7.12	2	0	0	1	1.0889218	-26.254979	110	1	1.12	0.95;
	318	1	6.12	2	0	0	1	1.0615064	-26.467069	110	1	1.12	0.95;
	319	1	0.81	0.3	0	0	1	1.0830499	-7.0203932	110	1	1.12	0.95;
	320	1	7.12	1	0	0	1	1.0998322	-25.237023	110	1	1.12	0.95;
	321	1	0	0	0	0	1	1.0921204	-24.272469	110	1	1.12	0.95;
	322	1	0	0	0	0	1	1.0726673	-26.304952	110	1	1.12	0.95;
	323	1	9.98	1.8	0	0	1	1.0555444	-25.072759	110	1	1.12	0.95;
	324	1	11.2	1.6	0	0	1	1.0664084	-27.225326	110	1	1.12	0.95;
	325	1	13.65	0.3	0	0	1	1.0986934	-27.315594	110	1	1.12	0.95;
	326	1	6.62	1.2	0	0	1	1.0790545	-15.148739	110	1	1.12	0.95;
	327	1	4.08	0.1	0	0	1	1.1189555	-21.353054	110	1	1.12	0.95;
	328	2	45.83	23	0	0	1	1.1064815	-23.856463	110	1	1.12	0.95;
	329	2	45.83	23	0	0	1	1.0978726	-27.278364	110	1	1.12	0.95;
	330	2	48.36	22	0	0	1	1.1128048	-22.513397	110	1	1.12	0.95;
	331	2	48.36	22	0	0	1	1.1186667	-25.523934	110	1	1.12	0.95;
	332	1	0	0	0	0	1	1.1194628	-21.059801	110	1	1.12	0.95;
	333	1	9.47	0.4	0	0	1	1.0713712	-27.997535	110	1	1.12	0.95;
	334	2	16.81	0.7	0	0	1	1.0844889	-28.021547	110	1	1.12	0.95;
	335	1	4.08	1	0	0	1	1.0780269	-29.556711	110	1	1.12	0.95;
	336	1	0	0	0	0	1	1.1010682	-25.045973	110	1	1.12	0.95;
	337	1	17.83	5.5	0	0	1	1.0683396	-28.077536	110	1	1.12	0.95;
	338	1	2.55	1.2	0	0	1	1.1044728	-14.632316	110	1	1.12	0.95;
	339	1	3.98	1.7	0	0	1	1.1149711	-11.428945	110	1	1.12	0.95;
	340	1	11.2	1.5	0	0	1	1.0519163	-31.663083	110	1	1.12	0.95;
	341	1	11	0.1	0	0	1	1.0736443	-30.259937	110	1	1.12	0.95;
	342	1	16.3	1.6	0	0	1	1.0812904	-15.000673	110	1	1.12	0.95;
	343	1	1.02	0.5	0	0	1	1.0684561	-27.842098	110	1	1.12	0.95;
	344	1	13.24	5	0	0	1	1.1169293	-21.388022	110	1	1.12	0.95;
	345	1	17.73	4	0	0	1	1.0951175	-25.461787	110	1	1.12	0.95;
	346	2	18.34	13	0	0	1	1.12	-21.019842	110	1	1.12	0.95;
	347	2	8.14	4.5	0	0	1	1.12	-23.920305	110	1	1.12	0.95;
	348	1	2.04	0.5	0	0	1	1.0962154	-26.144134	110	1	1.12	0.95;
	349	1	20.37	4.5	0	0	1	1.1040699	-23.813999	110	1	1.12	0.95;
	350	1	19.67	4.8	0	0	1	1.1029977	-15.738049	110	1	1.12	0.95;
	351	1	18.04	3.6	0	0	1	1.0717161	-26.543224	110	1	1.12	0.95;
	352	1	14.67	5.2	0	0	1	1.12	-12.143893	110	1	1.12	0.95;
	353	1	10.18	3.3	0	0	1	1.12	-10.629946	110	1	1.12	0.95;
	354	1	2.04	0.6	0	0	1	1.091446	-6.1044266	110	1	1.12	0.95;
	355	1	0	0	0	0	1	1.0965982	-4.4579396	110	1	1.12	0.95;
	356	1	2.96	0.6	0	0	1	1.1140155	-25.841022	110	1	1.12	0.95;
	357	1	2.04	0.1	0	0	1	1.1026127	-23.602658	110	1	1.12	0.95;
	358	1	6.92	1.6	0	0	1	1.1009556	-14.253716	110	1	1.12	0.95;
	359	2	3.57	1.2	0	0	1	1.1004731	-27.047445	110	1	1.12	0.95;
	360	1	3.57	1.1	0	0	1	1.1193487	-25.451438	110	1	1.12	0.95;
	361	1	0	0	0	0	1	1.1076344	-23.850311	110	1	1.12	0.95;
	362	1	0	0	0	0	1	1.0939099	-27.722384	110	1	1.12	0.95;
	363	1	6.12	1	0	0	1	1.0614127	-26.663616	110	1	1.12	0.95;
	364	1	-2.55	-0.8	0	0	1	1.0782242	-15.005448	110	1	1.12	0.95;
	365	2	33.61	6.7	0	0	1	1.0983817	-23.959713	110	1	1.12	0.95;
	366	1	34.62	6.7	0	0	1	1.0688695	-24.416583	110	1	1.12	0.95;
	367	1	12.02	1.6	0	0	1	1.1154634	-8.2320477	110	1	1.12	0.95;
	368	1	10.18	1.5	0	0	1	1.12	-6.9884208	110	1	1.12	0.95;
	369	1	11.2	1.5	0	0	1	1.0842836	-28.757541	110	1	1.12	0.95;
	370	1	14.57	1.6	0	0	1	1.1124012	-8.1022368	110	1	1.12	0.95;
	371	1	16.81	0.1	0	0	1	1.0991166	-27.256049	110	1	1.12	0.95;
	372	1	12.83	1	0	0	1	1.073872	-21.551305	110	1	1.12	0.95;
	373	1	2.24	0.2	0	0	1	1.0938681	-27.721686	110	1	1.12	0.95;
	374	1	0	0	0	0	1	1.12	-22.550712	110	1	1.12	0.95;
	375	1	0	0	0	0	1	1.0989711	-27.244335	110	1	1.12	0.95;
	376	1	25.16	5.4	0	0	1	1.1144464	-6.8552925	110	1	1.12	0.95;
	377	1	9.16	2	0	0	1	1.0676215	-28.012486	110	1	1.12	0.95;
	378	1	9.57	0.1	0	0	1	1.0998007	-27.153318	110	1	1.12	0.95;
	379	1	24.95	1.4	0	0	1	1.0827701	-27.971141	110	1	1.12	0.95;
	380	1	7.63	1.7	0	0	1	1.101582	-14.217843	110	1	1.12	0.95;
	381	1	10.38	0.5	0	0	1	1.1134511	-21.738748	110	1	1.12	0.95;
	382	2	8.14	3	0	0	1	1.0636816	-26.680031	110	1	1.12	0.95;
	383	2	22.4	4	0	0	1	1.0607858	-26.572205	110	1	1.12	0.95;
	384	1	14.26	3.5	0	0	1	1.0631738	-27.569981	110	1	1.12	0.95;
	385	2	21.89	6.5	0	0	1	1.0641509	-27.30172	110	1	1.12	0.95;
	386	1	12.73	2.5	0	0	1	1.089469	-27.401285	110	1	1.12	0.95;
	387	1	14.87	1.2	0	0	1	1.0724588	-25.880477	110	1	1.12	0.95;
	388	1	17.83	1.3	0	0	1	1.0389503	-27.293123	110	1	1.12	0.95;
	389	1	11.2	2.5	0	0	1	1.0660368	-27.01858	110	1	1.12	0.95;
	390	2	12.02	3.5	0	0	1	1.0799665	-7.6936807	110	1	1.12	0.95;
	391	1	5.2	1.5	0	0	1	1.1184742	-12.266711	110	1	1.12	0.95;
	392	1	11.4	2.6	0	0	1	1.0719148	-8.4933226	110	1	1.12	0.95;
	393	1	8.75	0.4	0	0	1	1.0967211	-27.427893	110	1	1.12	0.95;
	394	1	11.71	3.3	0	0	1	1.0853254	-16.390932	110	1	1.12	0.95;
	395	2	23.42	4.5	0	0	1	1.0987606	-25.874489	110	1	1.12	0.95;
	396	1	9.06	2.6	0	0	1	1.1171797	-13.735736	110	1	1.12	0.95;
	397	1	4.18	1	0	0	1	1.0870581	-25.465267	110	1	1.12	0.95;
	398	1	9.16	2	0	0	1	1.0217912	-28.650845	110	1	1.12	0.95;
	399	1	9.26	1.1	0	0	1	1.0848116	-8.7713639	110	1	1.12	0.95;
	400	1	9.16	1	0	0	1	1.0713148	-8.5698903	110	1	1.12	0.95;
	401	1	12.22	-0.5	0	0	1	1.0265588	-34.205473	110	1	1.12	0.95;
	402	1	4.28	0.9	0	0	1	1.0962964	-4.5060764	110	1	1.12	0.95;
	403	1	4.08	0.9	0	0	1	1.0859655	-6.5511638	110	1	1.12	0.95;
	404	2	12.02	3.1	0	0	1	1.0716183	-8.5353046	110	1	1.12	0.95;
	405	1	5.41	0.7	0	0	1	1.0997956	-9.0919987	110	1	1.12	0.95;
	406	1	9.06	2.4	0	0	1	1.1186855	-12.760051	110	1	1.12	0.95;
	407	1	20.11	4.9	0	0	1	1.112938	-14.428252	110	1	1.12	0.95;
	408	1	8.85	1.1	0	0	1	1.1029612	-9.3456568	110	1	1.12	0.95;
	409	1	7.12	1.2	0	0	1	1.0836445	-17.437943	110	1	1.12	0.95;
	410	1	9.47	2	0	0	1	1.094544	-13.52553	110	1	1.12	0.95;
	411	1	18.85	2.1	0	0	1	1.0562882	-26.28348	110	1	1.12	0.95;
	412	1	7.63	1.3	0	0	1	1.0566982	-26.168257	110	1	1.12	0.95;
	413	1	20.77	1.6	0	0	1	1.0577858	-25.97645	110	1	1.12	0.95;
	414	1	5.1	0.5	0	0	1	1.0236254	-34.460337	110	1	1.12	0.95;
	415	1	5.92	1.2	0	0	1	1.06965	-27.051394	110	1	1.12	0.95;
	416	1	20.87	5	0	0	1	1.0937241	-24.279506	110	1	1.12	0.95;
	417	1	2.65	0.3	0	0	1	1.1147443	-7.1682562	110	1	1.12	0.95;
	418	1	13.75	1.3	0	0	1	1.0680747	-28.356836	110	1	1.12	0.95;
	419	1	14.77	1.4	0	0	1	1.1087611	-12.326155	110	1	1.12	0.95;
	420	1	22.3	4.5	0	0	1	1.0668201	-23.34008	110	1	1.12	0.95;
	421	1	14.26	0.8	0	0	1	1.074322	-29.674149	110	1	1.12	0.95;
	422	1	14.26	0.8	0	0	1	1.0873663	-18.082732	110	1	1.12	0.95;
	423	1	18.34	2	0	0	1	1.0581068	-26.415159	110	1	1.12	0.95;
	424	1	12.63	4	0	0	1	1.1037381	-17.795564	110	1	1.12	0.95;
	425	1	33.92	4.2	0	0	1	1.0806446	-26.683792	110	1	1.12	0.95;
	426	2	16.81	4	0	0	1	1.0605844	-26.759153	110	1	1.12	0.95;
	427	1	18.04	2.1	0	0	1	1.0798695	-14.783537	110	1	1.12	0.95;
	428	1	17.83	0	0	0	1	1.1016416	-25.348935	110	1	1.12	0.95;
	429	1	12.32	3.5	0	0	1	1.118586	-10.798838	110	1	1.12	0.95;
	430	1	6.53	2	0	0	1	1.0708003	-21.420116	110	1	1.12	0.95;
	431	1	6.22	1.5	0	0	1	1.107876	-14.921915	110	1	1.12	0.95;
	432	1	3.37	0.2	0	0	1	1.1019789	-26.693192	110	1	1.12	0.95;
	433	1	5.2	1	0	0	1	1.1132556	-7.6910974	110	1	1.12	0.95;
	434	1	20.37	2.5	0	0	1	1.0282067	-34.034523	110	1	1.12	0.95;
	435	1	0.61	0.1	0	0	1	1.0694313	-22.903755	110	1	1.12	0.95;
	436	1	0.51	0.1	0	0	1	1.0976139	-24.512864	110	1	1.12	0.95;
	437	1	10.18	1	0	0	1	1.0596292	-29.902984	110	1	1.12	0.95;
	438	1	6.22	0.2	0	0	1	1.0927841	-25.632055	110	1	1.12	0.95;
	439	1	2.65	0.5	0	0	1	1.0761417	-14.970102	110	1	1.12	0.95;
	440	1	15.79	3.5	0	0	1	1.0809042	-25.401539	110	1	1.12	0.95;
	441	1	16.61	4.8	0	0	1	1.1191071	-11.885305	110	1	1.12	0.95;
	442	1	4.9	0	0	0	1	1.0656145	-31.542186	110	1	1.12	0.95;
	443	1	13.75	2.1	0	0	1	1.0081751	-29.259775	110	1	1.12	0.95;
	444	2	16.1	4.1	0	0	1	1.1015433	-8.9554415	110	1	1.12	0.95;
	445	1	14.77	1.9	0	0	1	1.0928716	-11.938675	110	1	1.12	0.95;
	446	1	14.98	1.7	0	0	1	1.0986973	-9.1929158	110	1	1.12	0.95;
	447	1	4.08	1	0	0	1	1.1191804	-6.2311482	110	1	1.12	0.95;
	448	1	4.79	2.4	0	0	1	1.12	-4.9929239	110	1	1.12	0.95;
	449	1	0	0	0	0	1	1.0928839	-11.938932	110	1	1.12	0.95;
	450	1	0	0	0	0	1	1.0987009	-9.1930063	110	1	1.12	0.95;
	451	2	9.16	4	0	0	1	1.092197	-24.282984	110	1	1.12	0.95;
	452	1	4.08	2	0	0	1	1.0713714	-26.222177	110	1	1.12	0.95;
	453	1	9.16	0.5	0	0	1	1.1192561	-22.186483	110	1	1.12	0.95;
	454	1	21.38	6	0	0	1	1.0896303	-24.447106	110	1	1.12	0.95;
	455	1	30.56	7	0	0	1	1.0636954	-26.549148	110	1	1.12	0.95;
	456	1	27.5	9	0	0	1	1.0791568	-26.328789	110	1	1.12	0.95;
	457	1	28.52	9	0	0	1	1.0875964	-26.157006	110	1	1.12	0.95;
	458	1	7.12	3	0	0	1	1.0678228	-27.481971	110	1	1.12	0.95;
	459	1	7.12	1	0	0	1	1.0685034	-28.300249	110	1	1.12	0.95;
	460	1	10.79	1.2	0	0	1	1.0708107	-26.646873	110	1	1.12	0.95;
	461	1	21.38	11	0	0	1	1.0640679	-26.691633	110	1	1.12	0.95;
	462	1	39.72	10	0	0	1	1.0703137	-26.973381	110	1	1.12	0.95;
	463	1	27.5	10	0	0	1	1.085219	-26.04956	110	1	1.12	0.95;
	464	1	21.38	8	0	0	1	1.0634761	-26.676951	110	1	1.12	0.95;
	465	1	23.42	6	0	0	1	1.0732679	-26.770977	110	1	1.12	0.95;
	466	1	7.12	1	0	0	1	1.0159123	-36.085662	110	1	1.12	0.95;
	467	1	61.09	20	0	0	1	1.0616198	-26.450181	110	1	1.12	0.95;
	468	1	30.56	10	0	0	1	1.0756299	-26.929804	110	1	1.12	0.95;
	469	1	7.63	1.4	0	0	1	1.1186866	-5.1333015	110	1	1.12	0.95;
	470	1	0	0	0	0	1	1.1042557	-8.867264	110	1	1.12	0.95;
	471	1	20.17	6.5	0	0	1	1.1188318	-10.857867	110	1	1.12	0.95;
	472	1	3.57	1.2	0	0	1	1.1182516	-12.743849	110	1	1.12	0.95;
	473	1	4.08	2	0	0	1	1.0692466	-27.659789	110	1	1.12	0.95;
	474	1	4.08	0.5	0	0	1	1.1074423	-23.836639	110	1	1.12	0.95;
	475	1	22.4	6	0	0	1	1.0700825	-26.52641	110	1	1.12	0.95;
	476	1	9.16	2	0	0	1	1.0889972	-25.716351	110	1	1.12	0.95;
	477	1	9.16	2	0	0	1	1.0577966	-25.48598	110	1	1.12	0.95;
	478	1	24.44	6	0	0	1	1.0737096	-26.989895	110	1	1.12	0.95;
	479	1	15.28	4	0	0	1	1.069449	-26.581713	110	1	1.12	0.95;
	480	1	10.18	3	0	0	1	1.0902403	-24.415729	110	1	1.12	0.95;
	481	1	18.85	3.4	0	0	1	1.0244978	-28.476153	110	1	1.12	0.95;
	482	2	31.07	2.6	0	0	1	1.1003491	-7.2254121	110	1	1.12	0.95;
	483	1	36.66	9	0	0	1	1.0608704	-26.5349	110	1	1.12	0.95;
	484	1	14.26	4	0	0	1	1.0777818	-25.054672	110	1	1.12	0.95;
	485	1	46.84	11	0	0	1	1.1030462	-23.91071	110	1	1.12	0.95;
	486	1	11.2	4	0	0	1	1.0942154	-25.037067	110	1	1.12	0.95;
	487	1	12.83	1.1	0	0	1	1.0211833	-28.674494	110	1	1.12	0.95;
	488	1	2	1	0	0	1	1.0608266	-26.55478	110	1	1.12	0.95;
	489	1	22.4	5	0	0	1	1.1084137	-23.649755	110	1	1.12	0.95;
	490	1	18.34	4	0	0	1	1.0779202	-26.363649	110	1	1.12	0.95;
	491	1	36.66	9	0	0	1	1.0789362	-26.334969	110	1	1.12	0.95;
	492	2	10.18	0.9	0	0	1	1.088631	-25.928802	110	1	1.12	0.95;
	493	2	44.81	21	0	0	1	1.12	-22.985657	110	1	1.12	0.95;
	494	2	38.7	22	0	0	1	1.0927055	-25.475488	110	1	1.12	0.95;
	495	1	11.2	3	0	0	1	1.0919721	-25.526229	110	1	1.12	0.95;
	496	1	12.22	3	0	0	1	1.1192448	-23.038895	110	1	1.12	0.95;
	497	1	24.44	6	0	0	1	1.0849032	-25.913026	110	1	1.12	0.95;
	498	1	24.44	4	0	0	1	1.0790104	-26.347927	110	1	1.12	0.95;
	499	1	21.42	3	0	0	1	1.0609439	-26.524532	110	1	1.12	0.95;
	500	1	5.1	1	0	0	1	1.1137014	-23.347522	110	1	1.12	0.95;
	501	1	52.95	12	0	0	1	1.058824	-26.348958	110	1	1.12	0.95;
	502	1	40.74	10	0	0	1	1.0611785	-26.484784	110	1	1.12	0.95;