function mpc = case_ACTIVSg2000
%CASE_ACTIVSG2000  Synthetic Texas 2000-bus power system model.
%
%   This is an entirely synthetic 2000 bus case, geographically situated
%   in the US state of Texas. The case is designed with a 500, 230, 161
%   and 115 kV transmission network to serve a load that roughly mimics
%   the actual population of its geographic footprint. The synthetic
%   transmission system was designed by algorithms described in [1] to be
%   statistically similar to actual transmission system models but without
%   modeling any actual lines.
%
%   When publishing results based on this data, please cite:
%
%   [1] A.B. Birchfield, T. Xu, K.M. Gegner, K.S. Shetye, T.J. Overbye,
%       "Grid Structural Characteristics as Validation Criteria for
%       Synthetic Networks," IEEE Transactions on Power Systems,
%       vol. 32, no. 4, pp. 3258-3265, July 2017.
%       DOI: 10.1109/TPWRS.2016.2616385
%
%   This is a synthetic power system model that does not represent the
%   actual grid. It was developed as part of the US ARPA-E GRID DATA
%   research project and contains no CEII.
%
%   One-line diagrams and other data formats available at:
%       https://electricgrids.engr.tamu.edu
%
%   Oct 17, 2017

%   Created from ACTIVSg2000.pwb, saved by
%   PowerWorld Simulator, version 20, build date September 14, 2017,
%   then by MATPOWER 6.

%   MATPOWER
%   Copyright (c) 2017 by A.B. Birchfield, T. Xu, K.M. Gegner, K.S. Shetye,
%   and T.J. Overbye
%   Licensed under the Creative Commons Attribution 4.0 International license,
%   http://creativecommons.org/licenses/by/4.0/

%% MATPOWER Case Format : Version 2
mpc.version = '2';

%%-----  Power Flow Data  -----%%
%% system MVA base
mpc.baseMVA = 100;

%% bus data
%	bus_i	type	Pd	Qd	Gs	Bs	area	Vm	Va	baseKV	zone	Vmax	Vmin	lam_P	lam_Q	mu_Vmax	mu_Vmin
mpc.bus = [
	1001	1	20.78	5.89	0	0	1	0.9845967	-41.685405	115	9	1.1	0.9	19.0200	0.0000	0.0000	0.0000;
	1002	1	15.41	4.37	0	0	1	1.0393022	-37.014538	115	9	1.1	0.9	19.0200	0.0000	0.0000	0.0000;
	1003	1	0	0	0	0	1	1.0114076	-36.82824	115	9	1.1	0.9	19.0200	0.0000	0.0000	0.0000;
	1004	2	0	0	0	0	1	1.0147607	-38.704638	230	9	1.1	0.9	19.0200	0.0000	0.0000	0.0000;
	1005	1	0	0	0	0	1	1.0114061	-35.129527	115	9	1.1	0.9	19.0200	0.0000	0.0000	0.0000;
	1006	2	0	0	0	0	1	1.005006	-32.979667	13.8	9	1.1	0.9	19.0200	0.0000	0.0000	0.0000;
	1007	1	7.01	1.99	0	0	1	1.0432233	-37.320462	115	9	1.1	0.9	19.0200	0.0000	0.0000	0.0000;
	1008	1	0	0	0	0	1	1.0371216	-26.882031	115	9	1.1	0.9	19.0200	0.0000	0.0000	0.0000;
	1009	2	0	0	0	0	1	1.0273106	-23.699937	13.8	9	1.1	0.9	19.0200	0.0000	0.0000	0.0000;
	1010	1	0	0	0	0	1	1.0469529	-35.805881	115	9	1.1	0.9	19.0200	0.0000	0.0000	0.0000;
	1011	2	0	0	0	0	1	1.0472111	-34.533531	22	9	1.1	0.9	19.0200	0.0000	0.0000	0.0000;
	1012	1	2.99	0.85	0	9.5	1	1.0539814	-41.738156	115	9	1.1	0.9	19.0200	0.0000	0.0000	0.0000;
	1013	1	29.23	8.28	0	0	1	1.0152491	-34.17231	115	9	1.1	0.9	19.0200	0.0000	0.0000	0.0000;
	1014	1	2.22	0.63	0	0	1	1.0237297	-30.542956	115	9	1.1	0.9	19.0200	0.0000	0.0000	0.0000;
	1015	1	7.51	2.13	0	0	1	1.0475018	-37.12724	115	9	1.1	0.9	19.0200	0.0000	0.0000	0.0000;
	1016	1	2.89	0.82	0	30	1	1.0194143	-34.290665	115	9	1.1	0.9	19.0200	0.0000	0.0000	0.0000;
	1017	1	18.34	5.2	0	0	1	0.9878647	-40.298202	115	9	1.1	0.9	19.0200	0.0000	0.0000	0.0000;
	1018	1	0.07	0.02	0	0	1	0.9949934	-39.026625	115	9	1.1	0.9	19.0200	0.0000	0.0000	0.0000;
	1019	1	61.78	17.5	0	142.98	1	1.0047606	-41.261395	115	9	1.1	0.9	19.0200	0.0000	0.0000	0.0000;
	1020	1	0	0	0	76.73	1	1.0271704	-34.202314	115	9	1.1	0.9	19.0200	0.0000	0.0000	0.0000;
	1021	2	0	0	0	0	1	1.0029299	-27.634753	13.8	9	1.1	0.9	19.0200	0.0000	0.0000	0.0000;
	1022	1	0	0	0	0	1	1.0141074	-35.971329	115	9	1.1	0.9	19.0200	0.0000	0.0000	0.0000;
	1023	2	0	0	0	0	1	1.01	-27.077524	13.8	9	1.1	0.9	19.0200	0.0000	0.0000	0.0000;
	1024	1	63.04	17.86	0	0	1	0.9963725	-37.983525	115	9	1.1	0.9	19.0200	0.0000	0.0000	0.0000;
	1025	1	0	0	0	0	1	1.0222462	-33.171237	115	9	1.1	0.9	19.0200	0.0000	0.0000	0.0000;
	1026	2	0	0	0	0	1	1	-23.690385	13.8	9	1.1	0.9	19.0200	0.0000	0.0000	0.0000;
	1027	1	101.21	28.68	0	75	1	1.0174852	-44.805795	115	9	1.1	0.9	19.0200	0.0000	0.0000	0.0000;
	1028	1	10.01	2.84	0	0	1	1.0168138	-37.538628	115	9	1.1	0.9	19.0200	0.0000	0.0000	0.0000;
	1029	1	83.18	23.57	0	40	1	1.0138684	-43.817396	115	9	1.1	0.9	19.0200	0.0000	0.0000	0.0000;
	1030	1	24.63	6.98	0	0	1	1.0316518	-32.047552	115	9	1.1	0.9	19.0200	0.0000	0.0000	0.0000;
	1031	1	9.25	2.62	0	0	1	1.0286909	-36.45425	115	9	1.1	0.9	19.0200	0.0000	0.0000	0.0000;
	1032	1	0	0	0	0	1	1.0184773	-30.560805	115	9	1.1	0.9	19.0200	0.0000	0.0000	0.0000;
	1033	2	0	0	0	20	1	1.0402415	-34.951727	230	9	1.1	0.9	19.0200	0.0000	0.0000	0.0000;
	1034	1	0	0	0	0	1	1.0071445	-33.264079	115	9	1.1	0.9	19.0200	0.0000	0.0000	0.0000;
	1035	2	0	0	0	0	1	1	-29.975016	13.8	9	1.1	0.9	19.0200	0.0000	0.0000	0.0000;
	1036	1	13.6	3.85	0	0	1	1.0066074	-30.858052	115	9	1.1	0.9	19.0200	0.0000	0.0000	0.0000;
	1037	1	102.24	28.97	0	0	1	0.980104	-41.442414	115	9	1.1	0.9	19.0200	0.0000	0.0000	0.0000;
	1038	1	0	0	0	0	1	1.0318373	-26.127993	115	9	1.1	0.9	19.0200	0.0000	0.0000	0.0000;
	1039	2	0	0	0	0	1	1.0116746	-20.880868	22	9	1.1	0.9	19.0200	0.0000	0.0000	0.0000;
	1040	1	44.36	12.57	0	0	1	0.9960449	-39.304115	115	9	1.1	0.9	19.0200	0.0000	0.0000	0.0000;
	1041	1	0	0	0	0	1	1.0060852	-34.134633	115	9	1.1	0.9	19.0200	0.0000	0.0000	0.0000;
	1042	2	0	0	0	0	1	1.0060852	-34.134633	13.8	9	1.1	0.9	19.0200	0.0000	0.0000	0.0000;
	1043	2	0	0	0	0	1	1	-30.899472	13.8	9	1.1	0.9	19.0200	0.0000	0.0000	0.0000;
	1044	1	14.68	4.16	0	0	1	1.017532	-44.01763	115	9	1.1	0.9	19.0200	0.0000	0.0000	0.0000;
	1045	1	98.56	27.93	0	0	1	0.9839338	-43.386148	115	9	1.1	0.9	19.0200	0.0000	0.0000	0.0000;
	1046	1	11.08	3.14	0	12	1	1.0487347	-39.987244	115	9	1.1	0.9	19.0200	0.0000	0.0000	0.0000;
	1047	1	0	0	0	0	1	1.0136215	-32.094839	115	9	1.1	0.9	19.0200	0.0000	0.0000	0.0000;
	1048	2	0	0	0	0	1	1.0136215	-32.094839	18	9	1.1	0.9	19.0200	0.0000	0.0000	0.0000;
	1049	2	0	0	0	0	1	1.0136215	-32.094839	18	9	1.1	0.9	19.0200	0.0000	0.0000	0.0000;
	1050	2	0	0	0	0	1	1.002667	-27.060629	18	9	1.1	0.9	19.0200	0.0000	0.0000	0.0000;
	1051	2	0	0	0	0	1	1	-25.567436	18	9	1.1	0.9	19.0200	0.0000	0.0000	0.0000;
	1052	2	0	0	0	0	1	1.0060587	-27.921667	18	9	1.1	0.9	19.0200	0.0000	0.0000	0.0000;
	1053	2	0	0	0	0	1	1.0395805	-35.915792	230	9	1.1	0.9	19.0200	0.0000	0.0000	0.0000;
	1054	1	14.99	4.25	0	0	1	1.0164431	-41.531654	115	9	1.1	0.9	19.0200	0.0000	0.0000	0.0000;
	1055	1	3.98	1.13	0	0	1	1.0047781	-37.821576	115	9	1.1	0.9	19.0200	0.0000	0.0000	0.0000;
	1056	1	0	0	0	80	1	1.0347082	-40.945605	115	9	1.1	0.9	19.0200	0.0000	0.0000	0.0000;
	1057	2	0	0	0	0	1	1.0347082	-40.945605	18	9	1.1	0.9	19.0200	0.0000	0.0000	0.0000;
	1058	1	13.46	3.81	0	0	1	1.043776	-29.337072	115	9	1.1	0.9	19.0200	0.0000	0.0000	0.0000;
	1059	2	0	0	0	0	1	1.043776	-29.337072	22	9	1.1	0.9	19.0200	0.0000	0.0000	0.0000;
	1060	2	0	0	0	0	1	1.043776	-29.337072	22	9	1.1	0.9	19.0200	0.0000	0.0000	0.0000;
	1061	1	0	0	0	0	1	1.0134072	-36.301689	115	9	1.1	0.9	19.0200	0.0000	0.0000	0.0000;
	1062	2	0	0	0	0	1	1.0134072	-36.301689	13.8	9	1.1	0.9	19.0200	0.0000	0.0000	0.0000;
	1063	2	0	0	0	0	1	1.0134072	-36.301689	13.8	9	1.1	0.9	19.0200	0.0000	0.0000	0.0000;
	1064	1	123.76	35.07	0	0	1	0.9776691	-43.090638	115	9	1.1	0.9	19.0200	0.0000	0.0000	0.0000;
	1065	1	0	0	0	0	1	1.009275	-33.987727	115	9	1.1	0.9	19.0200	0.0000	0.0000	0.0000;
	1066	2	0	0	0	0	1	1	-26.480316	13.8	9	1.1	0.9	19.0200	0.0000	0.0000	0.0000;
	1067	1	101.55	28.77	0	0	1	1.0029489	-34.689594	115	9	1.1	0.9	19.0200	0.0000	0.0000	0.0000;
	1068	1	59.4	16.83	0	0	1	0.9877451	-35.040608	115	9	1.1	0.9	19.0200	0.0000	0.0000	0.0000;
	1069	1	0	0	0	0	1	1.0402904	-26.964152	115	9	1.1	0.9	19.0200	0.0000	0.0000	0.0000;
	1070	2	0	0	0	0	1	1.04	-22.495895	13.8	9	1.1	0.9	19.0200	0.0000	0.0000	0.0000;
	1071	1	91.46	25.91	0	0	1	0.9918018	-40.435232	115	9	1.1	0.9	19.0200	0.0000	0.0000	0.0000;
	1072	2	0	0	0	0	1	1.01	-31.07293	18	9	1.1	0.9	19.0200	0.0000	0.0000	0.0000;
	1073	2	0	0	0	0	1	1.01	-24.66579	18	9	1.1	0.9	19.0200	0.0000	0.0000	0.0000;
	1074	2	0	0	0	0	1	1.01	-26.714301	18	9	1.1	0.9	19.0200	0.0000	0.0000	0.0000;
	1075	2	0	0	0	0	1	1.01	-29.478604	18	9	1.1	0.9	19.0200	0.0000	0.0000	0.0000;
	1076	2	0	0	0	0	1	0.9918018	-40.435232	18	9	1.1	0.9	19.0200	0.0000	0.0000	0.0000;
	1077	2	0	0	0	0	1	0.9918018	-40.435232	18	9	1.1	0.9	19.0200	0.0000	0.0000	0.0000;
	1078	2	0	0	0	0	1	1.01	-29.999327	18	9	1.1	0.9	19.0200	0.0000	0.0000	0.0000;
	1079	2	0	0	0	0	1	1.0156895	-58.076557	500	9	1.1	0.9	19.0200	0.0000	0.0000	0.0000;
	1080	2	0	0	0	0	1	1.01	-29.415572	18	9	1.1	0.9	19.0200	0.0000	0.0000	0.0000;
	1081	2	0	0	0	140	1	1.0468413	-37.211224	230	9	1.1	0.9	19.0200	0.0000	0.0000	0.0000;
	1082	2	0	0	0	0	1	1.035562	-24.371656	115	9	1.1	0.9	19.0200	0.0000	0.0000	0.0000;
	1083	1	39.95	11.32	0	26.15	1	1.0339872	-28.391094	115	9	1.1	0.9	19.0200	0.0000	0.0000	0.0000;
	1084	2	0	0	0	0	1	1.0296296	-35.387485	115	9	1.1	0.9	19.0200	0.0000	0.0000	0.0000;
	1085	1	21.3	6.03	0	0	1	1.0153108	-34.069223	115	9	1.1	0.9	19.0200	0.0000	0.0000	0.0000;
	1086	1	39.67	11.24	0	30	1	1.0234596	-36.281714	115	9	1.1	0.9	19.0200	0.0000	0.0000	0.0000;
	1087	1	0.91	0.26	0	30	1	1.05797	-33.920919	115	9	1.1	0.9	19.0200	0.0000	0.0000	0.0000;
	1088	2	0	0	0	0	1	1	-30.269318	115	9	1.1	0.9	19.0200	0.0000	0.0000	0.0000;
	1089	1	40.6	11.5	0	0	1	0.9877149	-40.819483	115	9	1.1	0.9	19.0200	0.0000	0.0000	0.0000;
	1090	2	0	0	0	0	1	1.02	-34.896894	115	9	1.1	0.9	19.0200	0.0000	0.0000	0.0000;
	1091	1	11.62	3.29	0	0	1	1.0256985	-51.208108	161	9	1.1	0.9	19.0200	0.0000	0.0000	0.0000;
	2001	1	48.36	13.7	0	0	2	1.0036054	-81.929085	161	11	1.1	0.9	19.0200	0.0000	0.0000	0.0000;
	2002	1	0	0	0	0	2	1.0129914	-83.353533	500	11	1.1	0.9	19.0200	0.0000	0.0000	0.0000;
	2003	1	0	0	0	0	2	1.0116692	-85.594225	161	11	1.1	0.9	19.0200	0.0000	0.0000	0.0000;
	2004	2	0	0	0	0	2	1.0129914	-83.353533	13.8	11	1.1	0.9	19.0200	0.0000	0.0000	0.0000;
	2005	2	0	0	0	0	2	1.0129914	-83.353533	13.8	11	1.1	0.9	19.0200	0.0000	0.0000	0.0000;
	2006	2	0	0	0	0	2	1.0129914	-83.353533	13.8	11	1.1	0.9	19.0200	0.0000	0.0000	0.0000;
	2007	1	9.54	2.7	0	0	2	1.0045293	-81.693105	161	11	1.1	0.9	19.0200	0.0000	0.0000	0.0000;
	2008	1	8.06	2.28	0	0	2	1.0165632	-53.209565	161	10	1.1	0.9	19.0200	0.0000	0.0000	0.0000;
	2009	1	39.14	11.09	0	120	2	1.0221563	-65.774031	161	11	1.1	0.9	19.0200	0.0000	0.0000	0.0000;
	2010	1	56.81	16.09	0	20	2	1.0180618	-56.58646	161	10	1.1	0.9	19.0200	0.0000	0.0000	0.0000;
	2011	1	0	0	0	0	2	1.0389118	-52.592832	500	10	1.1	0.9	19.0200	0.0000	0.0000	0.0000;
	2012	1	0	0	0	0	2	1.0272472	-50.339591	161	10	1.1	0.9	19.0200	0.0000	0.0000	0.0000;
	2013	2	0	0	0	0	2	1.0305531	-50.253301	18	10	1.1	0.9	19.0200	0.0000	0.0000	0.0000;
	2014	1	25.43	7.2	0	0	2	1.015031	-53.730997	161	10	1.1	0.9	19.0200	0.0000	0.0000	0.0000;
	2015	1	4.69	1.33	0	0	2	1.0104208	-84.383887	161	11	1.1	0.9	19.0200	0.0000	0.0000	0.0000;
	2016	1	69.27	19.63	0	0	2	1.0108079	-91.627019	161	11	1.1	0.9	19.0200	0.0000	0.0000	0.0000;
	2017	1	0	0	0	-200	2	1.0291129	-52.688185	500	10	1.1	0.9	19.0200	0.0000	0.0000	0.0000;
	2018	1	0	0	0	0	2	1.0270505	-51.909642	161	10	1.1	0.9	19.0200	0.0000	0.0000	0.0000;
	2019	2	0	0	0	0	2	1.0291129	-52.688185	20	10	1.1	0.9	19.0200	0.0000	0.0000	0.0000;
	2020	1	47.97	13.59	0	0	2	0.995809	-65.456612	161	11	1.1	0.9	19.0200	0.0000	0.0000	0.0000;
	2021	1	0	0	0	0	2	1.0155406	-78.684237	500	11	1.1	0.9	19.0200	0.0000	0.0000	0.0000;
	2022	1	11.56	3.28	0	0	2	1.0117921	-80.594989	161	11	1.1	0.9	19.0200	0.0000	0.0000	0.0000;
	2023	2	0	0	0	0	2	1.02	-77.117869	13.8	11	1.1	0.9	19.0200	0.0000	0.0000	0.0000;
	2024	2	0	0	0	0	2	1.02	-76.45161	13.8	11	1.1	0.9	19.0200	0.0000	0.0000	0.0000;
	2025	1	39.62	11.23	0	0	2	0.9945682	-64.664592	161	11	1.1	0.9	19.0200	0.0000	0.0000	0.0000;
	2026	1	18.57	5.26	0	0	2	1.0265157	-51.568334	161	10	1.1	0.9	19.0200	0.0000	0.0000	0.0000;
	2027	1	3.55	1.01	0	0	2	1.0041048	-82.352059	161	11	1.1	0.9	19.0200	0.0000	0.0000	0.0000;
	2028	1	14.24	4.03	0	0	2	0.9956393	-67.868719	161	11	1.1	0.9	19.0200	0.0000	0.0000	0.0000;
	2029	1	3.2	0.91	0	0	2	1.0206819	-53.061296	161	10	1.1	0.9	19.0200	0.0000	0.0000	0.0000;
	2030	1	47.15	13.36	0	0	2	0.9906906	-85.881214	161	11	1.1	0.9	19.0200	0.0000	0.0000	0.0000;
	2031	1	5.77	1.63	0	0	2	1.0201642	-49.615875	161	10	1.1	0.9	19.0200	0.0000	0.0000	0.0000;
	2032	1	3.35	0.95	0	0	2	1.0065187	-81.099889	161	11	1.1	0.9	19.0200	0.0000	0.0000	0.0000;
	2033	1	13.57	3.85	0	0	2	0.9932254	-87.336133	161	11	1.1	0.9	19.0200	0.0000	0.0000	0.0000;
	2034	1	5.34	1.51	0	0	2	1.0087046	-90.977995	161	11	1.1	0.9	19.0200	0.0000	0.0000	0.0000;
	2035	1	4.68	1.33	0	0	2	1.014046	-50.49179	161	10	1.1	0.9	19.0200	0.0000	0.0000	0.0000;
	2036	1	41.59	11.78	0	0	2	0.9997658	-65.041193	161	11	1.1	0.9	19.0200	0.0000	0.0000	0.0000;
	2037	1	3.5	0.99	0	0	2	1.0217681	-84.789997	161	11	1.1	0.9	19.0200	0.0000	0.0000	0.0000;
	2038	1	2.6	0.74	0	0	2	1.0086758	-86.064624	161	11	1.1	0.9	19.0200	0.0000	0.0000	0.0000;
	2039	1	5.56	1.58	0	0	2	0.9936701	-81.583374	161	11	1.1	0.9	19.0200	0.0000	0.0000	0.0000;
	2040	1	15.9	4.51	0	0	2	1.0093097	-81.264534	161	11	1.1	0.9	19.0200	0.0000	0.0000	0.0000;
	2041	1	0	0	0	0	2	1.0281571	-48.159277	161	10	1.1	0.9	19.0200	0.0000	0.0000	0.0000;
	2042	2	0	0	0	0	2	1.0195651	-45.584699	18	10	1.1	0.9	19.0200	0.0000	0.0000	0.0000;
	2043	1	4.24	1.2	0	0	2	1.009427	-91.275042	161	11	1.1	0.9	19.0200	0.0000	0.0000	0.0000;
	2044	1	27.4	7.76	0	0	2	1.0171214	-86.795296	161	11	1.1	0.9	19.0200	0.0000	0.0000	0.0000;
	2045	1	22.61	6.4	0	0	2	0.995162	-66.005071	161	11	1.1	0.9	19.0200	0.0000	0.0000	0.0000;
	2046	1	22.13	6.27	0	0	2	1.0083207	-90.602033	161	11	1.1	0.9	19.0200	0.0000	0.0000	0.0000;
	2047	1	14.96	4.24	0	0	2	1.0104348	-86.486992	161	11	1.1	0.9	19.0200	0.0000	0.0000	0.0000;
	2048	1	6.42	1.82	0	0	2	1.0235479	-51.815306	161	10	1.1	0.9	19.0200	0.0000	0.0000	0.0000;
	2049	1	11.57	3.28	0	0	2	1.0184718	-61.400783	161	10	1.1	0.9	19.0200	0.0000	0.0000	0.0000;
	2050	1	3.66	1.04	0	0	2	0.9963561	-85.111234	161	11	1.1	0.9	19.0200	0.0000	0.0000	0.0000;
	2051	1	17.85	5.06	0	0	2	0.99123	-74.946181	161	11	1.1	0.9	19.0200	0.0000	0.0000	0.0000;
	2052	1	24.84	7.04	0	0	2	1.0177648	-52.385446	161	10	1.1	0.9	19.0200	0.0000	0.0000	0.0000;
	2053	1	29.13	8.25	0	0	2	0.992133	-80.140906	161	11	1.1	0.9	19.0200	0.0000	0.0000	0.0000;
	2054	1	0	0	0	0	2	0.9981559	-63.691529	500	11	1.1	0.9	19.0200	0.0000	0.0000	0.0000;
	2055	1	49.62	14.06	0	0	2	0.9978564	-64.51895	161	11	1.1	0.9	19.0200	0.0000	0.0000	0.0000;
	2056	2	0	0	0	0	2	0.9981559	-63.691529	18	11	1.1	0.9	19.0200	0.0000	0.0000	0.0000;
	2057	2	0	0	0	0	2	0.99	-59.708737	18	11	1.1	0.9	19.0200	0.0000	0.0000	0.0000;
	2058	1	0	0	0	0	2	1.0284759	-47.733742	161	10	1.1	0.9	19.0200	0.0000	0.0000	0.0000;
	2059	2	0	0	0	0	2	1.0184795	-44.388191	13.8	10	1.1	0.9	19.0200	0.0000	0.0000	0.0000;
	2060	1	3.8	1.08	0	0	2	0.9994924	-83.842968	161	11	1.1	0.9	19.0200	0.0000	0.0000	0.0000;
	2061	1	0	0	0	0	2	1.0210129	-57.79729	161	10	1.1	0.9	19.0200	0.0000	0.0000	0.0000;
	2062	2	0	0	0	0	2	1.02	-55.500461	18	10	1.1	0.9	19.0200	0.0000	0.0000	0.0000;
	2063	1	65.62	18.59	0	40	2	1.0094948	-89.976659	161	11	1.1	0.9	19.0200	0.0000	0.0000	0.0000;
	2064	1	10.05	2.85	0	0	2	1.0050502	-82.204219	161	11	1.1	0.9	19.0200	0.0000	0.0000	0.0000;
	2065	1	78.36	22.2	0	100	2	1.0252721	-86.840261	161	11	1.1	0.9	19.0200	0.0000	0.0000	0.0000;
	2066	1	7.11	2.02	0	0	2	1.0138187	-47.463005	161	10	1.1	0.9	19.0200	0.0000	0.0000	0.0000;
	2067	1	53.97	15.29	0	0	2	0.9928075	-64.564071	161	11	1.1	0.9	19.0200	0.0000	0.0000	0.0000;
	2068	1	5.76	1.63	0	0	2	0.9992311	-62.434133	161	11	1.1	0.9	19.0200	0.0000	0.0000	0.0000;
	2069	1	21.92	6.21	0	120	2	1.0253031	-90.783489	161	11	1.1	0.9	19.0200	0.0000	0.0000	0.0000;
	2070	1	0	0	0	0	2	1.0012863	-61.979648	161	11	1.1	0.9	19.0200	0.0000	0.0000	0.0000;
	2071	2	0	0	0	0	2	1	-58.301727	18	11	1.1	0.9	19.0200	0.0000	0.0000	0.0000;
	2072	1	9.71	2.75	0	0	2	1.0189403	-88.91034	161	11	1.1	0.9	19.0200	0.0000	0.0000	0.0000;
	2073	1	0	0	0	0	2	1.0154431	-44.870912	161	10	1.1	0.9	19.0200	0.0000	0.0000	0.0000;
	2074	1	0	0	0	0	2	1.0056593	-42.946619	115	10	1.1	0.9	19.0200	0.0000	0.0000	0.0000;
	2075	1	0	0	0	0	2	1.0056593	-42.946619	115	10	1.1	0.9	19.0200	0.0000	0.0000	0.0000;
	2076	2	0	0	0	0	2	1.0207066	-43.964092	24	10	1.1	0.9	19.0200	0.0000	0.0000	0.0000;
	2077	1	0	0	0	0	2	1.0221927	-82.309889	161	11	1.1	0.9	19.0200	0.0000	0.0000	0.0000;
	2078	2	0	0	0	0	2	1.02	-78.994584	13.8	11	1.1	0.9	19.0200	0.0000	0.0000	0.0000;
	2079	1	4.48	1.27	0	0	2	1.0210636	-54.774605	161	10	1.1	0.9	19.0200	0.0000	0.0000	0.0000;
	2080	1	16.93	4.8	0	0	2	0.996963	-78.403978	161	11	1.1	0.9	19.0200	0.0000	0.0000	0.0000;
	2081	1	4.46	1.26	0	0	2	1.0033031	-86.866822	161	11	1.1	0.9	19.0200	0.0000	0.0000	0.0000;
	2082	1	59.03	16.73	0	0	2	1.0040216	-65.384313	161	11	1.1	0.9	19.0200	0.0000	0.0000	0.0000;
	2083	2	0	0	0	0	2	1.0187259	-63.803881	20	11	1.1	0.9	19.0200	0.0000	0.0000	0.0000;
	2084	2	0	0	0	0	2	1.0040216	-65.384313	20	11	1.1	0.9	19.0200	0.0000	0.0000	0.0000;
	2085	2	0	0	0	0	2	1.0040216	-65.384313	20	11	1.1	0.9	19.0200	0.0000	0.0000	0.0000;
	2086	1	2.19	0.62	0	0	2	0.9948319	-80.383769	161	11	1.1	0.9	19.0200	0.0000	0.0000	0.0000;
	2087	1	7.9	2.24	0	0	2	1.0171312	-47.337083	161	10	1.1	0.9	19.0200	0.0000	0.0000	0.0000;
	2088	1	0	0	0	0	2	1.000287	-62.120943	161	11	1.1	0.9	19.0200	0.0000	0.0000	0.0000;
	2089	2	0	0	0	0	2	1	-58.518563	24	11	1.1	0.9	19.0200	0.0000	0.0000	0.0000;
	2090	1	2.42	0.69	0	0	2	1.0045185	-82.958284	161	11	1.1	0.9	19.0200	0.0000	0.0000	0.0000;
	2091	1	17.05	4.83	0	0	2	1.0146672	-54.035634	161	10	1.1	0.9	19.0200	0.0000	0.0000	0.0000;
	2092	1	24.11	6.83	0	0	2	1.0084001	-88.306931	161	11	1.1	0.9	19.0200	0.0000	0.0000	0.0000;
	2093	1	0	0	0	0	2	1.0276153	-51.083709	161	10	1.1	0.9	19.0200	0.0000	0.0000	0.0000;
	2094	2	0	0	0	0	2	1.0276153	-51.083709	13.8	10	1.1	0.9	19.0200	0.0000	0.0000	0.0000;
	2095	2	0	0	0	0	2	1.0276153	-51.083709	13.8	10	1.1	0.9	19.0200	0.0000	0.0000	0.0000;
	2096	1	0	0	0	-100	2	1.0232132	-48.123522	500	10	1.1	0.9	19.0200	0.0000	0.0000	0.0000;
	2097	1	0	0	0	0	2	1.0220705	-47.520796	230	10	1.1	0.9	19.0200	0.0000	0.0000	0.0000;
	2098	1	0	0	0	0	2	1.0268054	-50.62656	161	10	1.1	0.9	19.0200	0.0000	0.0000	0.0000;
	2099	2	0	0	0	0	2	1.0227425	-47.980527	18	10	1.1	0.9	19.0200	0.0000	0.0000	0.0000;
	2100	2	0	0	0	0	2	1.02	-45.503816	18	10	1.1	0.9	19.0200	0.0000	0.0000	0.0000;
	2101	1	0	0	0	0	2	1.0123617	-84.401898	500	11	1.1	0.9	19.0200	0.0000	0.0000	0.0000;
	2102	1	0	0	0	0	2	1.0127834	-85.788109	161	11	1.1	0.9	19.0200	0.0000	0.0000	0.0000;
	2103	2	0	0	0	0	2	1.0123617	-84.401898	20	11	1.1	0.9	19.0200	0.0000	0.0000	0.0000;
	2104	2	0	0	0	0	2	1.0123617	-84.401898	20	11	1.1	0.9	19.0200	0.0000	0.0000	0.0000;
	2105	2	0	0	0	0	2	1.0123617	-84.401898	20	11	1.1	0.9	19.0200	0.0000	0.0000	0.0000;
	2106	1	14.4	4.08	0	0	2	0.9915649	-87.961693	161	11	1.1	0.9	19.0200	0.0000	0.0000	0.0000;
	2107	1	74.15	21.01	0	0	2	1.0072149	-86.630686	161	11	1.1	0.9	19.0200	0.0000	0.0000	0.0000;
	2108	1	2.14	0.61	0	0	2	0.9990759	-63.584279	161	10	1.1	0.9	19.0200	0.0000	0.0000	0.0000;
	2109	1	33.81	9.58	0	0	2	1.0083137	-66.93828	161	11	1.1	0.9	19.0200	0.0000	0.0000	0.0000;
	2110	1	8.59	2.43	0	50	2	1.0253895	-83.410616	161	11	1.1	0.9	19.0200	0.0000	0.0000	0.0000;
	2111	1	13.95	3.95	0	0	2	0.9942233	-69.081728	161	11	1.1	0.9	19.0200	0.0000	0.0000	0.0000;
	2112	1	4.54	1.29	0	0	2	0.9928151	-70.055711	161	11	1.1	0.9	19.0200	0.0000	0.0000	0.0000;
	2113	1	0	0	0	0	2	1.0155215	-78.237453	500	11	1.1	0.9	19.0200	0.0000	0.0000	0.0000;
	2114	1	70.78	20.05	0	0	2	1.0131699	-79.505751	161	11	1.1	0.9	19.0200	0.0000	0.0000	0.0000;
	2115	2	0	0	0	0	2	1.0066457	-74.2466	13.8	11	1.1	0.9	19.0200	0.0000	0.0000	0.0000;
	2116	2	0	0	0	0	2	1.0113017	-76.169437	13.8	11	1.1	0.9	19.0200	0.0000	0.0000	0.0000;
	2117	2	0	0	0	0	2	1.0039031	-73.607801	13.8	11	1.1	0.9	19.0200	0.0000	0.0000	0.0000;
	2118	2	0	0	0	0	2	1.002541	-73.100538	13.8	11	1.1	0.9	19.0200	0.0000	0.0000	0.0000;
	2119	2	0	0	0	0	2	1.010213	-75.717267	13.8	11	1.1	0.9	19.0200	0.0000	0.0000	0.0000;
	2120	2	0	0	0	0	2	1.01	-73.341786	13.8	11	1.1	0.9	19.0200	0.0000	0.0000	0.0000;
	2121	1	2.33	0.66	0	0	2	1.0080338	-81.886927	161	11	1.1	0.9	19.0200	0.0000	0.0000	0.0000;
	2122	1	6.72	1.9	0	0	2	0.998475	-83.05287	161	11	1.1	0.9	19.0200	0.0000	0.0000	0.0000;
	2123	2	0	0	0	0	2	1.028672	-47.503521	161	10	1.1	0.9	19.0200	0.0000	0.0000	0.0000;
	2124	1	21.29	6.03	0	0	2	0.9902595	-89.011055	161	11	1.1	0.9	19.0200	0.0000	0.0000	0.0000;
	2125	1	4.06	1.15	0	0	2	0.9945332	-88.818055	161	11	1.1	0.9	19.0200	0.0000	0.0000	0.0000;
	2126	1	14.24	4.03	0	0	2	1.0110808	-88.211445	161	11	1.1	0.9	19.0200	0.0000	0.0000	0.0000;
	2127	2	0	0	0	-150	2	1.04	-54.467229	500	10	1.1	0.9	19.0200	0.0000	0.0000	0.0000;
	2128	1	0	0	0	0	2	1.0300625	-52.970408	161	10	1.1	0.9	19.0200	0.0000	0.0000	0.0000;
	2129	1	6.63	1.88	0	0	2	0.9945984	-87.868649	161	11	1.1	0.9	19.0200	0.0000	0.0000	0.0000;
	2130	1	0	0	0	0	2	1.0008978	-62.148436	161	10	1.1	0.9	19.0200	0.0000	0.0000	0.0000;
	2131	1	0	0	0	0	2	0.9954841	-59.47114	115	10	1.1	0.9	19.0200	0.0000	0.0000	0.0000;
	2132	1	11.94	3.38	0	10	2	1.0114253	-61.209195	115	10	1.1	0.9	19.0200	0.0000	0.0000	0.0000;
	2133	1	5.68	1.61	0	0	2	1.0167713	-81.595206	161	11	1.1	0.9	19.0200	0.0000	0.0000	0.0000;
	3001	1	0	0	0	0	3	1.0215431	-61.622792	230	28	1.1	0.9	19.0200	0.0000	0.0000	0.0000;
	3002	1	112.86	31.98	0	0	3	1.010409	-63.994768	115	28	1.1	0.9	19.0200	0.0000	0.0000	0.0000;
	3003	1	0	0	0	0	3	1.0166468	-37.473347	115	27	1.1	0.9	19.0200	0.0000	0.0000	0.0000;
	3004	2	0	0	0	0	3	1.0117619	-35.880472	18	27	1.1	0.9	19.0200	0.0000	0.0000	0.0000;
	3005	1	7.34	2.08	0	0	3	1.036381	-63.849033	115	28	1.1	0.9	19.0200	0.0000	0.0000	0.0000;
	3006	1	7.35	2.08	0	0	3	1.0010358	-46.312834	115	27	1.1	0.9	19.0200	0.0000	0.0000	0.0000;
	3007	1	14.96	4.24	0	0	3	1.0151618	-43.961128	115	27	1.1	0.9	19.0200	0.0000	0.0000	0.0000;
	3008	1	19.81	5.61	0	0	3	1.0033598	-54.810181	115	27	1.1	0.9	19.0200	0.0000	0.0000	0.0000;
	3009	1	12.54	3.55	0	0	3	1.0283395	-48.497016	115	28	1.1	0.9	19.0200	0.0000	0.0000	0.0000;
	3010	1	4.67	1.32	0	0	3	1.0142074	-62.891111	115	28	1.1	0.9	19.0200	0.0000	0.0000	0.0000;
	3011	1	27.14	7.69	0	0	3	1.0291001	-68.617054	115	28	1.1	0.9	19.0200	0.0000	0.0000	0.0000;
	3012	1	0.56	0.16	0	0	3	1.0303257	-67.914009	115	28	1.1	0.9	19.0200	0.0000	0.0000	0.0000;
	3013	1	64.56	18.29	0	65	3	1.0203246	-47.703776	115	27	1.1	0.9	19.0200	0.0000	0.0000	0.0000;
	3014	1	22	6.23	0	0	3	1.0233517	-65.011875	115	28	1.1	0.9	19.0200	0.0000	0.0000	0.0000;
	3015	1	5.36	1.52	0	0	3	1.0132302	-36.403123	115	27	1.1	0.9	19.0200	0.0000	0.0000	0.0000;
	3016	1	0	0	0	0	3	1.0120469	-41.057758	115	27	1.1	0.9	19.0200	0.0000	0.0000	0.0000;
	3017	2	0	0	0	0	3	1.01	-35.864831	18	27	1.1	0.9	19.0200	0.0000	0.0000	0.0000;
	3018	1	0	0	0	0	3	1.0349587	-46.550444	230	27	1.1	0.9	19.0200	0.0000	0.0000	0.0000;
	3019	1	0	0	0	20	3	1.0315494	-48.198279	115	27	1.1	0.9	19.0200	0.0000	0.0000	0.0000;
	3020	2	0	0	0	0	3	1.03	-42.443827	13.8	27	1.1	0.9	19.0200	0.0000	0.0000	0.0000;
	3021	1	1.94	0.55	0	0	3	1.0003148	-55.397892	115	27	1.1	0.9	19.0200	0.0000	0.0000	0.0000;
	3022	1	24.59	6.97	0	0	3	0.9970674	-37.660222	115	27	1.1	0.9	19.0200	0.0000	0.0000	0.0000;
	3023	1	10.41	2.95	0	45	3	1.0196601	-46.479147	115	27	1.1	0.9	19.0200	0.0000	0.0000	0.0000;
	3024	1	10.13	2.87	0	0	3	1.0290651	-48.58191	115	28	1.1	0.9	19.0200	0.0000	0.0000	0.0000;
	3025	1	13.67	3.87	0	0	3	1.005635	-61.080913	115	28	1.1	0.9	19.0200	0.0000	0.0000	0.0000;
	3026	1	0	0	0	0	3	1.0277811	-56.562994	230	27	1.1	0.9	19.0200	0.0000	0.0000	0.0000;
	3027	1	0	0	0	0	3	1.0259301	-56.943681	115	27	1.1	0.9	19.0200	0.0000	0.0000	0.0000;
	3028	2	0	0	0	0	3	1.04	-53.977083	18	27	1.1	0.9	19.0200	0.0000	0.0000	0.0000;
	3029	1	4.87	1.38	0	0	3	1.0257483	-70.234695	115	28	1.1	0.9	19.0200	0.0000	0.0000	0.0000;
	3030	1	129.72	36.75	0	80	3	1.0219887	-57.595244	115	27	1.1	0.9	19.0200	0.0000	0.0000	0.0000;
	3031	1	14.73	4.17	0	0	3	1.0025862	-45.20024	115	27	1.1	0.9	19.0200	0.0000	0.0000	0.0000;
	3032	1	72.86	20.64	0	0	3	1.0043462	-46.331872	115	27	1.1	0.9	19.0200	0.0000	0.0000	0.0000;
	3033	1	0	0	0	0	3	1.0074966	-34.668662	115	27	1.1	0.9	19.0200	0.0000	0.0000	0.0000;
	3034	2	0	0	0	0	3	1.03	-25.391704	22	27	1.1	0.9	19.0200	0.0000	0.0000	0.0000;
	3035	1	3.47	0.98	0	0	3	1.0086514	-60.642593	115	28	1.1	0.9	19.0200	0.0000	0.0000	0.0000;
	3036	1	5.8	1.64	0	0	3	1.0062155	-58.493078	115	28	1.1	0.9	19.0200	0.0000	0.0000	0.0000;
	3037	1	0	0	0	0	3	1.024924	-45.159745	230	27	1.1	0.9	19.0200	0.0000	0.0000	0.0000;
	3038	1	0	0	0	0	3	1.0050899	-39.664907	115	27	1.1	0.9	19.0200	0.0000	0.0000	0.0000;
	3039	2	0	0	0	0	3	1.0378564	-42.571468	13.8	27	1.1	0.9	19.0200	0.0000	0.0000	0.0000;
	3040	1	14.61	4.14	0	0	3	1.0020485	-52.46311	115	27	1.1	0.9	19.0200	0.0000	0.0000	0.0000;
	3041	1	0	0	0	0	3	1.0175572	-48.53211	230	27	1.1	0.9	19.0200	0.0000	0.0000	0.0000;
	3042	1	8.75	2.48	0	0	3	1.0057278	-37.979754	115	27	1.1	0.9	19.0200	0.0000	0.0000	0.0000;
	3043	2	0	0	0	0	3	1.0175572	-48.53211	13.8	27	1.1	0.9	19.0200	0.0000	0.0000	0.0000;
	3044	2	0	0	0	0	3	1.0175572	-48.53211	13.8	27	1.1	0.9	19.0200	0.0000	0.0000	0.0000;
	3045	2	0	0	0	0	3	1.0175572	-48.53211	13.8	27	1.1	0.9	19.0200	0.0000	0.0000	0.0000;
	3046	1	0	0	0	200	3	1.0124173	-54.232669	230	27	1.1	0.9	19.0200	0.0000	0.0000	0.0000;
	3047	1	0	0	0	110	3	1.0251137	-39.89747	115	27	1.1	0.9	19.0200	0.0000	0.0000	0.0000;
	3048	2	0	0	0	0	3	1.0170554	-61.257048	500	27	1.1	0.9	19.0200	0.0000	0.0000	0.0000;
	3049	1	10.58	3	0	0	3	1.0007934	-49.562118	115	27	1.1	0.9	19.0200	0.0000	0.0000	0.0000;
	3050	1	0	0	0	65	3	1.0601085	-48.689179	230	28	1.1	0.9	19.0200	0.0000	0.0000	0.0000;
	3051	1	145.29	41.17	0	20	3	1.0445908	-50.575805	115	28	1.1	0.9	19.0200	0.0000	0.0000	0.0000;
	3052	1	8.08	2.29	0	0	3	1.0183749	-64.295807	115	28	1.1	0.9	19.0200	0.0000	0.0000	0.0000;
	3053	1	0	0	0	0	3	1.0286762	-46.583672	230	27	1.1	0.9	19.0200	0.0000	0.0000	0.0000;
	3054	1	0	0	0	0	3	1.0096093	-45.802043	115	27	1.1	0.9	19.0200	0.0000	0.0000	0.0000;
	3055	2	0	0	0	0	3	1.04	-43.697376	13.8	27	1.1	0.9	19.0200	0.0000	0.0000	0.0000;
	3056	2	0	0	0	0	3	1.04	-41.114131	13.8	27	1.1	0.9	19.0200	0.0000	0.0000	0.0000;
	3057	2	0	0	0	0	3	1.04	-41.279722	13.8	27	1.1	0.9	19.0200	0.0000	0.0000	0.0000;
	3058	1	0	0	0	0	3	1.0326341	-42.993518	230	27	1.1	0.9	19.0200	0.0000	0.0000	0.0000;
	3059	1	0	0	0	0	3	1.012755	-36.343247	115	27	1.1	0.9	19.0200	0.0000	0.0000	0.0000;
	3060	2	0	0	0	0	3	1.04	-35.430206	18	27	1.1	0.9	19.0200	0.0000	0.0000	0.0000;
	3061	2	0	0	0	0	3	1.04	-37.600175	18	27	1.1	0.9	19.0200	0.0000	0.0000	0.0000;
	3062	2	0	0	0	0	3	1.04	-40.277747	18	27	1.1	0.9	19.0200	0.0000	0.0000	0.0000;
	3063	2	0	0	0	0	3	1.04	-39.125343	18	27	1.1	0.9	19.0200	0.0000	0.0000	0.0000;
	3064	1	0	0	0	0	3	1.0190438	-37.758851	115	27	1.1	0.9	19.0200	0.0000	0.0000	0.0000;
	3065	2	0	0	0	0	3	1	-31.650388	18	27	1.1	0.9	19.0200	0.0000	0.0000	0.0000;
	3066	1	22.03	6.24	0	0	3	1.0136527	-59.540078	115	28	1.1	0.9	19.0200	0.0000	0.0000	0.0000;
	3067	1	0	0	0	0	3	1.0275916	-39.056979	115	27	1.1	0.9	19.0200	0.0000	0.0000	0.0000;
	3068	2	0	0	0	0	3	1.04	-36.163022	20	27	1.1	0.9	19.0200	0.0000	0.0000	0.0000;
	3069	1	3.81	1.08	0	0	3	1.0031294	-48.344896	115	27	1.1	0.9	19.0200	0.0000	0.0000	0.0000;
	3070	1	0	0	0	0	3	1.0200223	-40.244371	115	27	1.1	0.9	19.0200	0.0000	0.0000	0.0000;
	3071	2	0	0	0	0	3	1.0055878	-35.670606	24	27	1.1	0.9	19.0200	0.0000	0.0000	0.0000;
	3072	1	5.98	1.7	0	0	3	1.0166673	-56.296694	115	27	1.1	0.9	19.0200	0.0000	0.0000	0.0000;
	3073	1	0	0	0	0	3	1.0150112	-60.113922	115	28	1.1	0.9	19.0200	0.0000	0.0000	0.0000;
	3074	2	0	0	0	0	3	1.0067642	-57.632678	13.8	28	1.1	0.9	19.0200	0.0000	0.0000	0.0000;
	3075	1	12.18	3.45	0	0	3	1.0079314	-57.615245	115	28	1.1	0.9	19.0200	0.0000	0.0000	0.0000;
	3076	1	10.79	3.06	0	0	3	1.0125564	-61.533139	115	28	1.1	0.9	19.0200	0.0000	0.0000	0.0000;
	3077	1	68.66	19.45	0	0	3	1.0053043	-47.16518	115	27	1.1	0.9	19.0200	0.0000	0.0000	0.0000;
	3078	1	0	0	0	0	3	1.0197008	-45.511062	230	27	1.1	0.9	19.0200	0.0000	0.0000	0.0000;
	3079	1	0	0	0	0	3	1.0151663	-43.762084	161	27	1.1	0.9	19.0200	0.0000	0.0000	0.0000;
	3080	1	0	0	0	0	3	1.0055312	-40.769255	115	27	1.1	0.9	19.0200	0.0000	0.0000	0.0000;
	3081	2	0	0	0	0	3	1.04	-39.421167	20	27	1.1	0.9	19.0200	0.0000	0.0000	0.0000;
	3082	1	0	0	0	0	3	1.0190527	-47.455248	230	27	1.1	0.9	19.0200	0.0000	0.0000	0.0000;
	3083	1	0	0	0	0	3	1.0135298	-43.467696	115	27	1.1	0.9	19.0200	0.0000	0.0000	0.0000;
	3084	2	0	0	0	0	3	1	-37.597774	13.8	27	1.1	0.9	19.0200	0.0000	0.0000	0.0000;
	3085	1	0	0	0	0	3	1.0048958	-37.952382	115	27	1.1	0.9	19.0200	0.0000	0.0000	0.0000;
	3086	2	0	0	0	0	3	1	-31.011551	13.2	27	1.1	0.9	19.0200	0.0000	0.0000	0.0000;
	3087	2	0	0	0	0	3	1.0048958	-37.952382	13.2	27	1.1	0.9	19.0200	0.0000	0.0000	0.0000;
	3088	1	0	0	0	100	3	1.0271525	-52.874316	230	27	1.1	0.9	19.0200	0.0000	0.0000	0.0000;
	3089	1	0	0	0	0	3	1.028082	-55.473797	161	27	1.1	0.9	19.0200	0.0000	0.0000	0.0000;
	3090	1	0	0	0	0	3	1.0305638	-56.120394	161	27	1.1	0.9	19.0200	0.0000	0.0000	0.0000;
	3091	1	0	0	0	100	3	1.0341437	-56.987636	115	27	1.1	0.9	19.0200	0.0000	0.0000	0.0000;
	3092	2	0	0	0	0	3	1.04	-46.069885	13.8	27	1.1	0.9	19.0200	0.0000	0.0000	0.0000;
	3093	1	5.05	1.43	0	0	3	1.0159587	-63.681792	115	28	1.1	0.9	19.0200	0.0000	0.0000	0.0000;
	3094	1	0	0	0	0	3	1.0166385	-42.513698	115	27	1.1	0.9	19.0200	0.0000	0.0000	0.0000;
	3095	2	0	0	0	0	3	1.04	-34.592632	18	27	1.1	0.9	19.0200	0.0000	0.0000	0.0000;
	3096	1	0	0	0	0	3	1.021084	-41.386529	230	27	1.1	0.9	19.0200	0.0000	0.0000	0.0000;
	3097	1	0	0	0	0	3	1.0173709	-39.4958	115	27	1.1	0.9	19.0200	0.0000	0.0000	0.0000;
	3098	2	0	0	0	0	3	1.04	-32.715543	13.8	27	1.1	0.9	19.0200	0.0000	0.0000	0.0000;
	3099	1	12.08	3.42	0	0	3	1.0040938	-48.060896	115	27	1.1	0.9	19.0200	0.0000	0.0000	0.0000;
	3100	1	8.53	2.42	0	0	3	1.0107291	-54.385753	115	27	1.1	0.9	19.0200	0.0000	0.0000	0.0000;
	3101	1	9.43	2.67	0	0	3	1.0097436	-62.433862	115	28	1.1	0.9	19.0200	0.0000	0.0000	0.0000;
	3102	1	75.26	21.32	0	0	3	1.023315	-57.119169	115	27	1.1	0.9	19.0200	0.0000	0.0000	0.0000;
	3103	1	39.32	11.14	0	0	3	1.0096472	-39.847392	115	27	1.1	0.9	19.0200	0.0000	0.0000	0.0000;