function mpc = case_ACTIV_SG_2000
%CASE_ACTIV_SG_2000  Synthetic Texas 2000-bus power system model.
%
%   This is an entirely synthetic 2000 bus case, geographically situated
%   in the US state of Texas. The case is designed with a 500, 230, 161
%   115, 24, 22, 20, 18, 13.8 and 13.2 kV transmission network to serve
%   a load that roughly mimics the actual population of its geographic
%   footprint. The synthetic transmission system was designed by
%   algorithms described in [1] to be statistically similar to actual
%   transmission system models but without modeling any actual lines.
%
%   When publishing results based on this data, please cite:
%
%   [1] A.B. Birchfield, T. Xu, K.M. Gegner, K.S. Shetye, T.J. Overbye,
%       "Grid Structural Characteristics as Validation Criteria for
%       Synthetic Networks," IEEE Transactions on Power Systems, 2017.
%
%   This is a synthetic power system model that does not represent the
%   actual grid. It was developed as part of the US ARPA-E GRID DATA
%   research project and contains no CEII.
%
%   One-line diagrams and other data formats available at:
%       https://electricgrids.engr.tamu.edu
%
%   April 28, 2017

%   Created from ACTIV_SG_2000.pwb, saved by
%   PowerWorld Simulator, version 20 Beta, build date April 26, 2017,
%   then by MATPOWER 6.0.

%   MATPOWER
%   Copyright (c) 2017 by A.B. Birchfield, T. Xu, K.M. Gegner, K.S. Shetye,
%   and T.J. Overbye
%   Licensed under the Creative Commons Attribution 4.0 International license,
%   http://creativecommons.org/licenses/by/4.0/

%% MATPOWER Case Format : Version 2
mpc.version = '2';

%%-----  Power Flow Data  -----%%
%% system MVA base
mpc.baseMVA = 100;

%% bus data
%	bus_i	type	Pd	Qd	Gs	Bs	area	Vm	Va	baseKV	zone	Vmax	Vmin	lam_P	lam_Q	mu_Vmax	mu_Vmin
mpc.bus = [
	1	1	20.78	5.89	0	0	2	0.9873563	-4.750629	115	1	1.1	0.9	19.0200	0.0000	0.0000	0.0000;
	2	1	15.41	4.37	0	0	2	1.0377117	-12.808007	115	1	1.1	0.9	19.0200	0.0000	0.0000	0.0000;
	3	1	0	0	0	0	2	0.99818	-30.536085	115	1	1.1	0.9	19.0200	0.0000	0.0000	0.0000;
	4	2	0	0	0	0	2	1.01	-34.24855	230	1	1.1	0.9	19.0200	0.0000	0.0000	0.0000;
	5	1	0	0	0	0	2	1.0024038	-15.137592	115	1	1.1	0.9	19.0200	0.0000	0.0000	0.0000;
	6	2	0	0	0	0	2	1	-12.966991	13.8	1	1.1	0.9	19.0200	0.0000	0.0000	0.0000;
	7	1	7.01	1.99	0	0	2	1.0385957	-12.213521	115	1	1.1	0.9	19.0200	0.0000	0.0000	0.0000;
	8	1	0	0	0	0	2	1.0340722	-7.367527	115	1	1.1	0.9	19.0200	0.0000	0.0000	0.0000;
	9	2	0	0	0	0	2	1.024222	-4.166405	13.8	1	1.1	0.9	19.0200	0.0000	0.0000	0.0000;
	10	1	0	0	0	0	2	1.0451056	-11.878217	115	1	1.1	0.9	19.0200	0.0000	0.0000	0.0000;
	11	2	0	0	0	0	2	1.0453633	-10.601364	22	1	1.1	0.9	19.0200	0.0000	0.0000	0.0000;
	12	1	2.99	0.85	0	9.5	2	1.0579381	-26.620897	115	1	1.1	0.9	19.0200	0.0000	0.0000	0.0000;
	13	1	29.23	8.28	0	0	2	1.0076665	-6.912252	115	1	1.1	0.9	19.0200	0.0000	0.0000	0.0000;
	14	1	2.22	0.63	0	0	2	1.0192705	-5.55192	115	1	1.1	0.9	19.0200	0.0000	0.0000	0.0000;
	15	1	7.51	2.13	0	0	2	1.044506	-12.696256	115	1	1.1	0.9	19.0200	0.0000	0.0000	0.0000;
	16	1	2.89	0.82	0	30	2	1.0176868	-13.474109	115	1	1.1	0.9	19.0200	0.0000	0.0000	0.0000;
	17	1	18.34	5.2	0	0	2	0.986861	-8.180627	115	1	1.1	0.9	19.0200	0.0000	0.0000	0.0000;
	18	1	0.07	0.02	0	0	2	0.9937205	-7.392231	115	1	1.1	0.9	19.0200	0.0000	0.0000	0.0000;
	19	1	61.78	17.5	0	142.98	2	1.0073921	-5.525198	115	1	1.1	0.9	19.0200	0.0000	0.0000	0.0000;
	20	1	0	0	0	76.73	2	1.0118408	-15.227462	115	1	1.1	0.9	19.0200	0.0000	0.0000	0.0000;
	21	2	0	0	0	0	2	1	-8.570237	13.8	1	1.1	0.9	19.0200	0.0000	0.0000	0.0000;
	22	1	0	0	0	0	2	1.0024659	-30.044283	115	1	1.1	0.9	19.0200	0.0000	0.0000	0.0000;
	23	2	0	0	0	0	2	1.01	-21.077215	13.8	1	1.1	0.9	19.0200	0.0000	0.0000	0.0000;
	24	1	63.04	17.86	0	0	2	0.9961299	-6.718962	115	1	1.1	0.9	19.0200	0.0000	0.0000	0.0000;
	25	1	0	0	0	0	2	1.0104688	-13.888763	115	1	1.1	0.9	19.0200	0.0000	0.0000	0.0000;
	26	2	0	0	0	0	2	1	-4.312291	13.8	1	1.1	0.9	19.0200	0.0000	0.0000	0.0000;
	27	1	101.21	28.68	0	75	2	1.0181071	-16.355342	115	1	1.1	0.9	19.0200	0.0000	0.0000	0.0000;
	28	1	10.01	2.84	0	0	2	1.0057363	-32.456354	115	1	1.1	0.9	19.0200	0.0000	0.0000	0.0000;
	29	1	83.18	23.57	0	40	2	1.0038452	-16.30604	115	1	1.1	0.9	19.0200	0.0000	0.0000	0.0000;
	30	1	24.63	6.98	0	0	2	1.0317784	-9.512678	115	1	1.1	0.9	19.0200	0.0000	0.0000	0.0000;
	31	1	9.25	2.62	0	0	2	1.0218733	-10.289914	115	1	1.1	0.9	19.0200	0.0000	0.0000	0.0000;
	32	1	0	0	0	0	2	1.0167742	-9.631481	115	1	1.1	0.9	19.0200	0.0000	0.0000	0.0000;
	33	2	0	0	0	100	2	1.0335304	-13.497784	230	1	1.1	0.9	19.0200	0.0000	0.0000	0.0000;
	34	1	0	0	0	0	2	1.0049251	-12.460295	115	1	1.1	0.9	19.0200	0.0000	0.0000	0.0000;
	35	2	0	0	0	0	2	1	-9.170488	13.8	1	1.1	0.9	19.0200	0.0000	0.0000	0.0000;
	36	1	13.6	3.85	0	0	2	1.0057531	-9.960314	115	1	1.1	0.9	19.0200	0.0000	0.0000	0.0000;
	37	1	102.24	28.97	0	0	2	0.9820091	-6.972549	115	1	1.1	0.9	19.0200	0.0000	0.0000	0.0000;
	38	1	0	0	0	0	2	1.0312343	-4.783977	115	1	1.1	0.9	19.0200	0.0000	0.0000	0.0000;
	39	2	0	0	0	0	2	1.011054	0.469456	22	1	1.1	0.9	19.0200	0.0000	0.0000	0.0000;
	40	1	44.36	12.57	0	0	2	0.9982011	-6.514174	115	1	1.1	0.9	19.0200	0.0000	0.0000	0.0000;
	41	1	0	0	0	0	2	1.0032022	-12.998204	115	1	1.1	0.9	19.0200	0.0000	0.0000	0.0000;
	42	2	0	0	0	0	2	1.0032022	-12.998204	13.8	1	1.1	0.9	19.0200	0.0000	0.0000	0.0000;
	43	2	0	0	0	0	2	1	-9.757589	13.8	1	1.1	0.9	19.0200	0.0000	0.0000	0.0000;
	44	1	14.68	4.16	0	0	2	1.0078641	-29.30086	115	1	1.1	0.9	19.0200	0.0000	0.0000	0.0000;
	45	1	98.56	27.93	0	0	2	0.9837103	-8.520112	115	1	1.1	0.9	19.0200	0.0000	0.0000	0.0000;
	46	1	11.08	3.14	0	12	2	1.0494515	-25.125231	115	1	1.1	0.9	19.0200	0.0000	0.0000	0.0000;
	47	1	0	0	0	0	2	1.0062351	-4.748191	115	1	1.1	0.9	19.0200	0.0000	0.0000	0.0000;
	48	2	0	0	0	0	2	1.0062351	-4.748191	18	1	1.1	0.9	19.0200	0.0000	0.0000	0.0000;
	49	2	0	0	0	0	2	1.0062351	-4.748191	18	1	1.1	0.9	19.0200	0.0000	0.0000	0.0000;
	50	2	0	0	0	0	2	1	0.328036	18	1	1.1	0.9	19.0200	0.0000	0.0000	0.0000;
	51	2	0	0	0	0	2	1	1.80882	18	1	1.1	0.9	19.0200	0.0000	0.0000	0.0000;
	52	2	0	0	0	0	2	1	-0.522389	18	1	1.1	0.9	19.0200	0.0000	0.0000	0.0000;
	53	2	0	0	0	0	2	1.0193557	-11.284422	230	1	1.1	0.9	19.0200	0.0000	0.0000	0.0000;
	54	1	14.99	4.25	0	0	2	1.0096099	-20.911209	115	1	1.1	0.9	19.0200	0.0000	0.0000	0.0000;
	55	1	3.98	1.13	0	0	2	0.9918958	-30.106882	115	1	1.1	0.9	19.0200	0.0000	0.0000	0.0000;
	56	1	0	0	0	80	2	1.0269105	-16.965381	115	1	1.1	0.9	19.0200	0.0000	0.0000	0.0000;
	57	2	0	0	0	0	2	1.0269105	-16.965381	18	1	1.1	0.9	19.0200	0.0000	0.0000	0.0000;
	58	1	13.46	3.81	0	0	2	1.0424786	-10.959197	115	1	1.1	0.9	19.0200	0.0000	0.0000	0.0000;
	59	2	0	0	0	0	2	1.0424786	-10.959197	22	1	1.1	0.9	19.0200	0.0000	0.0000	0.0000;
	60	2	0	0	0	0	2	1.0424786	-10.959197	22	1	1.1	0.9	19.0200	0.0000	0.0000	0.0000;
	61	1	0	0	0	0	2	1.0029666	-16.566852	115	1	1.1	0.9	19.0200	0.0000	0.0000	0.0000;
	62	2	0	0	0	0	2	1.0029666	-16.566852	13.8	1	1.1	0.9	19.0200	0.0000	0.0000	0.0000;
	63	2	0	0	0	0	2	1.0029666	-16.566852	13.8	1	1.1	0.9	19.0200	0.0000	0.0000	0.0000;
	64	1	123.76	35.07	0	0	2	0.979092	-6.813608	115	1	1.1	0.9	19.0200	0.0000	0.0000	0.0000;
	65	1	0	0	0	0	2	1.0066766	-12.424473	115	1	1.1	0.9	19.0200	0.0000	0.0000	0.0000;
	66	2	0	0	0	0	2	1	-4.903746	13.8	1	1.1	0.9	19.0200	0.0000	0.0000	0.0000;
	67	1	101.55	28.77	0	0	2	0.9992613	-13.889728	115	1	1.1	0.9	19.0200	0.0000	0.0000	0.0000;
	68	1	59.4	16.83	0	0	2	0.9868116	-14.203441	115	1	1.1	0.9	19.0200	0.0000	0.0000	0.0000;
	69	1	0	0	0	0	2	1.0377571	-7.890621	115	1	1.1	0.9	19.0200	0.0000	0.0000	0.0000;
	70	2	0	0	0	0	2	1.04	-3.417385	13.8	1	1.1	0.9	19.0200	0.0000	0.0000	0.0000;
	71	1	91.46	25.91	0	0	2	0.9961785	-2.997839	115	1	1.1	0.9	19.0200	0.0000	0.0000	0.0000;
	72	2	0	0	0	0	2	1.01	6.338796	18	1	1.1	0.9	19.0200	0.0000	0.0000	0.0000;
	73	2	0	0	0	0	2	1.01	12.709948	18	1	1.1	0.9	19.0200	0.0000	0.0000	0.0000;
	74	2	0	0	0	0	2	1.01	10.673814	18	1	1.1	0.9	19.0200	0.0000	0.0000	0.0000;
	75	2	0	0	0	0	2	1.01	7.919764	18	1	1.1	0.9	19.0200	0.0000	0.0000	0.0000;
	76	2	0	0	0	0	2	0.9961785	-2.997839	18	1	1.1	0.9	19.0200	0.0000	0.0000	0.0000;
	77	2	0	0	0	0	2	0.9961785	-2.997839	18	1	1.1	0.9	19.0200	0.0000	0.0000	0.0000;
	78	2	0	0	0	0	2	1.01	7.398936	18	1	1.1	0.9	19.0200	0.0000	0.0000	0.0000;
	79	2	0	0	0	0	2	1.01	1.64778	18	1	1.1	0.9	19.0200	0.0000	0.0000	0.0000;
	80	2	0	0	0	0	2	1.01	7.988216	18	1	1.1	0.9	19.0200	0.0000	0.0000	0.0000;
	81	2	0	0	0	100	2	1.0230297	-13.496682	230	1	1.1	0.9	19.0200	0.0000	0.0000	0.0000;
	82	2	0	0	0	0	2	1.0339779	-3.802784	115	1	1.1	0.9	19.0200	0.0000	0.0000	0.0000;
	83	1	39.95	11.32	0	26.15	2	1.0329804	-6.234968	115	1	1.1	0.9	19.0200	0.0000	0.0000	0.0000;
	84	2	0	0	0	0	2	1.0146078	-13.078018	115	1	1.1	0.9	19.0200	0.0000	0.0000	0.0000;
	85	1	21.3	6.03	0	0	2	1.0103507	-5.757978	115	1	1.1	0.9	19.0200	0.0000	0.0000	0.0000;
	86	1	39.67	11.24	0	30	2	1.0178152	-8.436918	115	1	1.1	0.9	19.0200	0.0000	0.0000	0.0000;
	87	1	0.91	0.26	0	50	2	1.0630053	-16.956704	115	1	1.1	0.9	19.0200	0.0000	0.0000	0.0000;
	88	2	0	0	0	0	2	1	-9.403051	115	1	1.1	0.9	19.0200	0.0000	0.0000	0.0000;
	89	1	40.6	11.5	0	0	2	0.9741866	-28.416624	115	1	1.1	0.9	19.0200	0.0000	0.0000	0.0000;
	90	2	0	0	0	0	2	1.02	-3.985126	115	1	1.1	0.9	19.0200	0.0000	0.0000	0.0000;
	91	1	11.62	3.29	0	0	2	1.0207403	-48.981034	161	1	1.1	0.9	19.0200	0.0000	0.0000	0.0000;
	92	1	48.36	13.7	0	0	2	1.0038365	-83.416223	161	1	1.1	0.9	19.0200	0.0000	0.0000	0.0000;
	93	1	0	0	0	0	2	1.0132563	-84.91594	500	1	1.1	0.9	19.0200	0.0000	0.0000	0.0000;
	94	1	0	0	0	0	2	1.0139439	-87.160454	161	1	1.1	0.9	19.0200	0.0000	0.0000	0.0000;
	95	2	0	0	0	0	2	1.0132563	-84.91594	13.8	1	1.1	0.9	19.0200	0.0000	0.0000	0.0000;
	96	2	0	0	0	0	2	1.0132563	-84.91594	13.8	1	1.1	0.9	19.0200	0.0000	0.0000	0.0000;
	97	2	0	0	0	0	2	1.0132563	-84.91594	13.8	1	1.1	0.9	19.0200	0.0000	0.0000	0.0000;
	98	1	9.54	2.7	0	0	2	1.0049675	-83.185963	161	1	1.1	0.9	19.0200	0.0000	0.0000	0.0000;
	99	1	8.06	2.28	0	0	2	1.0143612	-51.651026	161	1	1.1	0.9	19.0200	0.0000	0.0000	0.0000;
	100	1	39.14	11.09	0	187	2	1.040721	-64.803735	161	1	1.1	0.9	19.0200	0.0000	0.0000	0.0000;
	101	1	56.81	16.09	0	20	2	1.0155694	-54.578849	161	1	1.1	0.9	19.0200	0.0000	0.0000	0.0000;
	102	1	0	0	0	0	2	1.0386952	-51.423744	500	1	1.1	0.9	19.0200	0.0000	0.0000	0.0000;
	103	1	0	0	0	0	2	1.0264555	-49.091758	161	1	1.1	0.9	19.0200	0.0000	0.0000	0.0000;
	104	2	0	0	0	0	2	1.0303343	-49.083228	18	1	1.1	0.9	19.0200	0.0000	0.0000	0.0000;
	105	1	25.43	7.2	0	0	2	1.0118953	-51.989077	161	1	1.1	0.9	19.0200	0.0000	0.0000	0.0000;
	106	1	4.69	1.33	0	0	2	0.9966506	-85.278198	161	1	1.1	0.9	19.0200	0.0000	0.0000	0.0000;
	107	1	69.27	19.63	0	0	2	1.0279395	-93.324662	161	1	1.1	0.9	19.0200	0.0000	0.0000	0.0000;
	108	1	0	0	0	-200	2	1.0278129	-51.309597	500	1	1.1	0.9	19.0200	0.0000	0.0000	0.0000;
	109	1	0	0	0	0	2	1.0260555	-50.573228	161	1	1.1	0.9	19.0200	0.0000	0.0000	0.0000;
	110	2	0	0	0	0	2	1.0278129	-51.309597	20	1	1.1	0.9	19.0200	0.0000	0.0000	0.0000;
	111	1	47.97	13.59	0	0	2	0.9963862	-64.306373	161	1	1.1	0.9	19.0200	0.0000	0.0000	0.0000;
	112	1	0	0	0	0	2	1.0155783	-80.163964	500	1	1.1	0.9	19.0200	0.0000	0.0000	0.0000;
	113	1	11.56	3.28	0	0	2	1.0119754	-82.080243	161	1	1.1	0.9	19.0200	0.0000	0.0000	0.0000;
	114	2	0	0	0	0	2	1.02	-78.597621	13.8	1	1.1	0.9	19.0200	0.0000	0.0000	0.0000;
	115	2	0	0	0	0	2	1.02	-77.931388	13.8	1	1.1	0.9	19.0200	0.0000	0.0000	0.0000;
	116	1	39.62	11.23	0	0	2	0.9943708	-63.444187	161	1	1.1	0.9	19.0200	0.0000	0.0000	0.0000;
	117	1	18.57	5.26	0	0	2	1.0260402	-50.382512	161	1	1.1	0.9	19.0200	0.0000	0.0000	0.0000;
	118	1	3.55	1.01	0	0	2	1.0043869	-83.841694	161	1	1.1	0.9	19.0200	0.0000	0.0000	0.0000;
	119	1	14.24	4.03	0	0	2	0.9984508	-66.941819	161	1	1.1	0.9	19.0200	0.0000	0.0000	0.0000;
	120	1	3.2	0.91	0	0	2	1.0168798	-51.166618	161	1	1.1	0.9	19.0200	0.0000	0.0000	0.0000;
	121	1	47.15	13.36	0	0	2	0.9918446	-87.408597	161	1	1.1	0.9	19.0200	0.0000	0.0000	0.0000;
	122	1	5.77	1.63	0	0	2	1.0131343	-46.870877	161	1	1.1	0.9	19.0200	0.0000	0.0000	0.0000;
	123	1	3.35	0.95	0	0	2	1.0068735	-82.588954	161	1	1.1	0.9	19.0200	0.0000	0.0000	0.0000;
	124	1	13.57	3.85	0	0	2	0.994477	-88.875139	161	1	1.1	0.9	19.0200	0.0000	0.0000	0.0000;
	125	1	5.34	1.51	0	0	2	1.0212425	-92.61949	161	1	1.1	0.9	19.0200	0.0000	0.0000	0.0000;
	126	1	4.68	1.33	0	0	2	1.0071299	-47.693798	161	1	1.1	0.9	19.0200	0.0000	0.0000	0.0000;
	127	1	41.59	11.78	0	0	2	1.0029246	-63.872538	161	1	1.1	0.9	19.0200	0.0000	0.0000	0.0000;
	128	1	3.5	0.99	0	0	2	1.0058112	-85.677063	161	1	1.1	0.9	19.0200	0.0000	0.0000	0.0000;
	129	1	2.6	0.74	0	0	2	1.0108024	-87.627597	161	1	1.1	0.9	19.0200	0.0000	0.0000	0.0000;
	130	1	5.56	1.58	0	0	2	0.9856555	-82.460263	161	1	1.1	0.9	19.0200	0.0000	0.0000	0.0000;
	131	1	15.9	4.51	0	0	2	1.0095337	-82.749252	161	1	1.1	0.9	19.0200	0.0000	0.0000	0.0000;
	132	1	0	0	0	0	2	1.0274017	-46.916335	161	1	1.1	0.9	19.0200	0.0000	0.0000	0.0000;
	133	2	0	0	0	0	2	1.0188017	-44.337931	18	1	1.1	0.9	19.0200	0.0000	0.0000	0.0000;
	134	1	4.24	1.2	0	0	2	1.0238805	-92.940557	161	1	1.1	0.9	19.0200	0.0000	0.0000	0.0000;
	135	1	27.4	7.76	0	0	2	1.0002396	-88.031968	161	1	1.1	0.9	19.0200	0.0000	0.0000	0.0000;
	136	1	22.61	6.4	0	0	2	0.9961651	-64.901543	161	1	1.1	0.9	19.0200	0.0000	0.0000	0.0000;
	137	1	22.13	6.27	0	0	2	1.0188105	-92.217817	161	1	1.1	0.9	19.0200	0.0000	0.0000	0.0000;
	138	1	14.96	4.24	0	0	2	1.0137835	-88.059983	161	1	1.1	0.9	19.0200	0.0000	0.0000	0.0000;
	139	1	6.42	1.82	0	0	2	1.0180143	-49.433994	161	1	1.1	0.9	19.0200	0.0000	0.0000	0.0000;
	140	1	11.57	3.28	0	0	2	1.0275456	-60.171589	161	1	1.1	0.9	19.0200	0.0000	0.0000	0.0000;
	141	1	3.66	1.04	0	0	2	0.9970185	-86.619661	161	1	1.1	0.9	19.0200	0.0000	0.0000	0.0000;
	142	1	17.85	5.06	0	0	2	0.9875767	-74.7845	161	1	1.1	0.9	19.0200	0.0000	0.0000	0.0000;
	143	1	24.84	7.04	0	0	2	1.0162995	-50.978487	161	1	1.1	0.9	19.0200	0.0000	0.0000	0.0000;
	144	1	29.13	8.25	0	0	2	0.9877864	-81.457339	161	1	1.1	0.9	19.0200	0.0000	0.0000	0.0000;
	145	1	0	0	0	0	2	0.9966053	-62.448024	500	1	1.1	0.9	19.0200	0.0000	0.0000	0.0000;
	146	1	49.62	14.06	0	0	2	0.9978446	-63.306448	161	1	1.1	0.9	19.0200	0.0000	0.0000	0.0000;
	147	2	0	0	0	0	2	0.9966053	-62.448024	18	1	1.1	0.9	19.0200	0.0000	0.0000	0.0000;
	148	2	0	0	0	0	2	0.99	-58.460718	18	1	1.1	0.9	19.0200	0.0000	0.0000	0.0000;
	149	1	0	0	0	0	2	1.0277582	-46.499166	161	1	1.1	0.9	19.0200	0.0000	0.0000	0.0000;
	150	2	0	0	0	0	2	1.0177522	-43.148881	13.8	1	1.1	0.9	19.0200	0.0000	0.0000	0.0000;
	151	1	3.8	1.08	0	0	2	1.000055	-85.348242	161	1	1.1	0.9	19.0200	0.0000	0.0000	0.0000;
	152	1	0	0	0	0	2	1.0235754	-56.324663	161	1	1.1	0.9	19.0200	0.0000	0.0000	0.0000;
	153	2	0	0	0	0	2	1.02	-54.027993	18	1	1.1	0.9	19.0200	0.0000	0.0000	0.0000;
	154	1	65.62	18.59	0	40	2	1.0178572	-91.57562	161	1	1.1	0.9	19.0200	0.0000	0.0000	0.0000;
	155	1	10.05	2.85	0	0	2	1.0054065	-83.699101	161	1	1.1	0.9	19.0200	0.0000	0.0000	0.0000;
	156	1	78.36	22.2	0	0	2	0.9968019	-87.82137	161	1	1.1	0.9	19.0200	0.0000	0.0000	0.0000;
	157	1	7.11	2.02	0	0	2	1.0060316	-44.336852	161	1	1.1	0.9	19.0200	0.0000	0.0000	0.0000;
	158	1	53.97	15.29	0	0	2	0.992355	-63.332608	161	1	1.1	0.9	19.0200	0.0000	0.0000	0.0000;
	159	1	5.76	1.63	0	0	2	0.9977237	-61.156593	161	1	1.1	0.9	19.0200	0.0000	0.0000	0.0000;
	160	1	21.92	6.21	0	179.77	2	1.0459905	-92.570834	161	1	1.1	0.9	19.0200	0.0000	0.0000	0.0000;
	161	1	0	0	0	0	2	0.9992188	-60.683369	161	1	1.1	0.9	19.0200	0.0000	0.0000	0.0000;
	162	2	0	0	0	0	2	1	-57.000514	18	1	1.1	0.9	19.0200	0.0000	0.0000	0.0000;
	163	1	9.71	2.75	0	0	2	1.0312457	-90.639928	161	1	1.1	0.9	19.0200	0.0000	0.0000	0.0000;
	164	1	0	0	0	0	2	1.0074669	-41.48599	161	1	1.1	0.9	19.0200	0.0000	0.0000	0.0000;
	165	1	0	0	0	0	2	0.9996455	-39.432562	115	1	1.1	0.9	19.0200	0.0000	0.0000	0.0000;
	166	1	0	0	0	0	2	0.9996455	-39.432562	115	1	1.1	0.9	19.0200	0.0000	0.0000	0.0000;
	167	2	0	0	0	0	2	1.0127697	-40.564826	24	1	1.1	0.9	19.0200	0.0000	0.0000	0.0000;
	168	1	0	0	0	0	2	1.0156776	-83.092404	161	1	1.1	0.9	19.0200	0.0000	0.0000	0.0000;
	169	2	0	0	0	0	2	1.02	-79.766128	13.8	1	1.1	0.9	19.0200	0.0000	0.0000	0.0000;
	170	1	4.48	1.27	0	0	2	1.017168	-52.617322	161	1	1.1	0.9	19.0200	0.0000	0.0000	0.0000;
	171	1	16.93	4.8	0	0	2	0.9912027	-78.693371	161	1	1.1	0.9	19.0200	0.0000	0.0000	0.0000;
	172	1	4.46	1.26	0	0	2	1.0051572	-88.424393	161	1	1.1	0.9	19.0200	0.0000	0.0000	0.0000;
	173	1	59.03	16.73	0	0	2	1.0106432	-64.261394	161	1	1.1	0.9	19.0200	0.0000	0.0000	0.0000;
	174	2	0	0	0	0	2	1.02	-62.684811	20	1	1.1	0.9	19.0200	0.0000	0.0000	0.0000;
	175	2	0	0	0	0	2	1.0106432	-64.261394	20	1	1.1	0.9	19.0200	0.0000	0.0000	0.0000;
	176	2	0	0	0	0	2	1.0106432	-64.261394	20	1	1.1	0.9	19.0200	0.0000	0.0000	0.0000;
	177	1	2.19	0.62	0	0	2	0.9875409	-81.031131	161	1	1.1	0.9	19.0200	0.0000	0.0000	0.0000;
	178	1	7.9	2.24	0	0	2	1.0093552	-44.261135	161	1	1.1	0.9	19.0200	0.0000	0.0000	0.0000;
	179	1	0	0	0	0	2	0.9986416	-60.83677	161	1	1.1	0.9	19.0200	0.0000	0.0000	0.0000;
	180	2	0	0	0	0	2	1	-57.230424	24	1	1.1	0.9	19.0200	0.0000	0.0000	0.0000;
	181	1	2.42	0.69	0	0	2	1.0048952	-84.452432	161	1	1.1	0.9	19.0200	0.0000	0.0000	0.0000;
	182	1	17.05	4.83	0	0	2	1.00972	-51.641126	161	1	1.1	0.9	19.0200	0.0000	0.0000	0.0000;
	183	1	24.11	6.83	0	0	2	1.014148	-89.895018	161	1	1.1	0.9	19.0200	0.0000	0.0000	0.0000;
	184	1	0	0	0	0	2	1.0267383	-49.794218	161	1	1.1	0.9	19.0200	0.0000	0.0000	0.0000;
	185	2	0	0	0	0	2	1.0267383	-49.794218	13.8	1	1.1	0.9	19.0200	0.0000	0.0000	0.0000;
	186	2	0	0	0	0	2	1.0267383	-49.794218	13.8	1	1.1	0.9	19.0200	0.0000	0.0000	0.0000;
	187	1	0	0	0	-100	2	1.0195662	-46.008125	500	1	1.1	0.9	19.0200	0.0000	0.0000	0.0000;
	188	1	0	0	0	0	2	1.0171548	-45.23068	230	1	1.1	0.9	19.0200	0.0000	0.0000	0.0000;
	189	1	0	0	0	0	2	1.0218675	-48.389614	161	1	1.1	0.9	19.0200	0.0000	0.0000	0.0000;
	190	2	0	0	0	0	2	1.02	-45.864671	18	1	1.1	0.9	19.0200	0.0000	0.0000	0.0000;
	191	2	0	0	0	0	2	1.02	-43.382675	18	1	1.1	0.9	19.0200	0.0000	0.0000	0.0000;
	192	1	0	0	0	0	2	1.0123705	-85.987288	500	1	1.1	0.9	19.0200	0.0000	0.0000	0.0000;
	193	1	0	0	0	0	2	1.0126277	-87.372273	161	1	1.1	0.9	19.0200	0.0000	0.0000	0.0000;
	194	2	0	0	0	0	2	1.0123705	-85.987288	20	1	1.1	0.9	19.0200	0.0000	0.0000	0.0000;
	195	2	0	0	0	0	2	1.0123705	-85.987288	20	1	1.1	0.9	19.0200	0.0000	0.0000	0.0000;
	196	2	0	0	0	0	2	1.0123705	-85.987288	20	1	1.1	0.9	19.0200	0.0000	0.0000	0.0000;
	197	1	14.4	4.08	0	0	2	0.9933327	-89.518249	161	1	1.1	0.9	19.0200	0.0000	0.0000	0.0000;
	198	1	74.15	21.01	0	0	2	1.0069815	-88.222756	161	1	1.1	0.9	19.0200	0.0000	0.0000	0.0000;
	199	1	2.14	0.61	0	0	2	0.9846122	-62.978095	161	1	1.1	0.9	19.0200	0.0000	0.0000	0.0000;
	200	1	33.81	9.58	0	0	2	1.0205148	-65.968238	161	1	1.1	0.9	19.0200	0.0000	0.0000	0.0000;
	201	1	8.59	2.43	0	86.84	2	1.0177036	-84.258495	161	1	1.1	0.9	19.0200	0.0000	0.0000	0.0000;
	202	1	13.95	3.95	0	0	2	0.9844174	-69.922874	161	1	1.1	0.9	19.0200	0.0000	0.0000	0.0000;
	203	1	4.54	1.29	0	0	2	0.9933142	-69.350149	161	1	1.1	0.9	19.0200	0.0000	0.0000	0.0000;
	204	1	0	0	0	0	2	1.0155433	-79.707978	500	1	1.1	0.9	19.0200	0.0000	0.0000	0.0000;
	205	1	70.78	20.05	0	0	2	1.0133103	-80.981759	161	1	1.1	0.9	19.0200	0.0000	0.0000	0.0000;
	206	2	0	0	0	0	2	1.0066678	-75.717299	13.8	1	1.1	0.9	19.0200	0.0000	0.0000	0.0000;
	207	2	0	0	0	0	2	1.0113236	-77.640052	13.8	1	1.1	0.9	19.0200	0.0000	0.0000	0.0000;
	208	2	0	0	0	0	2	1.0039253	-75.078529	13.8	1	1.1	0.9	19.0200	0.0000	0.0000	0.0000;
	209	2	0	0	0	0	2	1.0025633	-74.571288	13.8	1	1.1	0.9	19.0200	0.0000	0.0000	0.0000;
	210	2	0	0	0	0	2	1.010235	-77.187902	13.8	1	1.1	0.9	19.0200	0.0000	0.0000	0.0000;
	211	2	0	0	0	0	2	1.01	-74.812398	13.8	1	1.1	0.9	19.0200	0.0000	0.0000	0.0000;
	212	1	2.33	0.66	0	0	2	1.0083098	-83.374904	161	1	1.1	0.9	19.0200	0.0000	0.0000	0.0000;
	213	1	6.72	1.9	0	0	2	0.9991238	-84.558062	161	1	1.1	0.9	19.0200	0.0000	0.0000	0.0000;
	214	2	0	0	0	0	2	1.0279303	-46.262573	161	1	1.1	0.9	19.0200	0.0000	0.0000	0.0000;
	215	1	21.29	6.03	0	0	2	0.9928816	-90.590743	161	1	1.1	0.9	19.0200	0.0000	0.0000	0.0000;
	216	1	4.06	1.15	0	0	2	0.9938825	-90.454849	161	1	1.1	0.9	19.0200	0.0000	0.0000	0.0000;
	217	1	14.24	4.03	0	0	2	0.9933556	-89.485999	161	1	1.1	0.9	19.0200	0.0000	0.0000	0.0000;
	218	2	0	0	0	-150	2	1.04	-53.327301	500	1	1.1	0.9	19.0200	0.0000	0.0000	0.0000;
	219	1	0	0	0	0	2	1.0297547	-51.807865	161	1	1.1	0.9	19.0200	0.0000	0.0000	0.0000;
	220	1	6.63	1.88	0	0	2	0.9960569	-89.418113	161	1	1.1	0.9	19.0200	0.0000	0.0000	0.0000;
	221	1	0	0	0	0	2	0.9862186	-61.188265	161	1	1.1	0.9	19.0200	0.0000	0.0000	0.0000;
	222	1	0	0	0	0	2	0.9790983	-57.856052	115	1	1.1	0.9	19.0200	0.0000	0.0000	0.0000;
	223	1	11.94	3.38	0	10	2	0.9944315	-59.652242	115	1	1.1	0.9	19.0200	0.0000	0.0000	0.0000;
	224	1	5.68	1.61	0	0	2	1.0103052	-82.281876	161	1	1.1	0.9	19.0200	0.0000	0.0000	0.0000;
	225	1	0	0	0	0	2	1.020897	-61.359965	230	1	1.1	0.9	19.0200	0.0000	0.0000	0.0000;
	226	1	112.86	31.98	0	0	2	1.0090752	-63.644581	115	1	1.1	0.9	19.0200	0.0000	0.0000	0.0000;
	227	1	0	0	0	0	2	1.0159309	-31.833992	115	1	1.1	0.9	19.0200	0.0000	0.0000	0.0000;
	228	2	0	0	0	0	2	1.0110419	-30.238859	18	1	1.1	0.9	19.0200	0.0000	0.0000	0.0000;
	229	1	7.34	2.08	0	0	2	1.0324332	-62.723082	115	1	1.1	0.9	19.0200	0.0000	0.0000	0.0000;
	230	1	7.35	2.08	0	0	2	0.9961494	-42.34221	115	1	1.1	0.9	19.0200	0.0000	0.0000	0.0000;
	231	1	14.96	4.24	0	0	2	1.0149577	-39.252168	115	1	1.1	0.9	19.0200	0.0000	0.0000	0.0000;
	232	1	19.81	5.61	0	0	2	1.0098977	-49.710732	115	1	1.1	0.9	19.0200	0.0000	0.0000	0.0000;
	233	1	12.54	3.55	0	0	2	1.0406743	-37.152418	115	1	1.1	0.9	19.0200	0.0000	0.0000	0.0000;
	234	1	4.67	1.32	0	0	2	1.008308	-61.533044	115	1	1.1	0.9	19.0200	0.0000	0.0000	0.0000;
	235	1	27.14	7.69	0	0	2	1.0282741	-68.453847	115	1	1.1	0.9	19.0200	0.0000	0.0000	0.0000;
	236	1	0.56	0.16	0	0	2	1.0295718	-67.745458	115	1	1.1	0.9	19.0200	0.0000	0.0000	0.0000;
	237	1	64.56	18.29	0	95	2	1.0335058	-43.126595	115	1	1.1	0.9	19.0200	0.0000	0.0000	0.0000;
	238	1	22	6.23	0	0	2	1.021711	-64.894658	115	1	1.1	0.9	19.0200	0.0000	0.0000	0.0000;
	239	1	5.36	1.52	0	0	2	1.0127084	-31.368489	115	1	1.1	0.9	19.0200	0.0000	0.0000	0.0000;
	240	1	0	0	0	0	2	1.0114215	-35.662703	115	1	1.1	0.9	19.0200	0.0000	0.0000	0.0000;
	241	2	0	0	0	0	2	1.01	-30.467482	18	1	1.1	0.9	19.0200	0.0000	0.0000	0.0000;
	242	1	0	0	0	0	2	1.0383501	-35.931422	230	1	1.1	0.9	19.0200	0.0000	0.0000	0.0000;
	243	1	0	0	0	80	2	1.0435159	-37.424097	115	1	1.1	0.9	19.0200	0.0000	0.0000	0.0000;
	244	2	0	0	0	0	2	1.03	-31.834555	13.8	1	1.1	0.9	19.0200	0.0000	0.0000	0.0000;
	245	1	1.94	0.55	0	0	2	0.9865628	-52.948239	115	1	1.1	0.9	19.0200	0.0000	0.0000	0.0000;
	246	1	24.59	6.97	0	0	2	0.9929405	-33.267	115	1	1.1	0.9	19.0200	0.0000	0.0000	0.0000;
	247	1	10.41	2.95	0	65	2	1.0222117	-42.866135	115	1	1.1	0.9	19.0200	0.0000	0.0000	0.0000;
	248	1	10.13	2.87	0	0	2	1.0412069	-37.621818	115	1	1.1	0.9	19.0200	0.0000	0.0000	0.0000;
	249	1	13.67	3.87	0	0	2	1.0087309	-57.771818	115	1	1.1	0.9	19.0200	0.0000	0.0000	0.0000;
	250	1	0	0	0	0	2	1.0079892	-54.096865	230	1	1.1	0.9	19.0200	0.0000	0.0000	0.0000;
	251	1	0	0	0	0	2	1.0058925	-53.983783	115	1	1.1	0.9	19.0200	0.0000	0.0000	0.0000;
	252	2	0	0	0	0	2	1.0210554	-51.411747	18	1	1.1	0.9	19.0200	0.0000	0.0000	0.0000;
	253	1	4.87	1.38	0	0	2	1.0315256	-70.781861	115	1	1.1	0.9	19.0200	0.0000	0.0000	0.0000;
	254	1	129.72	36.75	0	80	2	1.0411866	-48.787831	115	1	1.1	0.9	19.0200	0.0000	0.0000	0.0000;
	255	1	14.73	4.17	0	0	2	0.9996809	-40.182184	115	1	1.1	0.9	19.0200	0.0000	0.0000	0.0000;
	256	1	72.86	20.64	0	0	2	1.0017325	-41.680534	115	1	1.1	0.9	19.0200	0.0000	0.0000	0.0000;
	257	1	0	0	0	0	2	1.0045557	-30.68133	115	1	1.1	0.9	19.0200	0.0000	0.0000	0.0000;
	258	2	0	0	0	0	2	1.03	-21.382876	22	1	1.1	0.9	19.0200	0.0000	0.0000	0.0000;
	259	1	3.47	0.98	0	0	2	1.017674	-56.411709	115	1	1.1	0.9	19.0200	0.0000	0.0000	0.0000;
	260	1	5.8	1.64	0	0	2	1.0148718	-53.86606	115	1	1.1	0.9	19.0200	0.0000	0.0000	0.0000;
	261	1	0	0	0	0	2	1.007839	-41.376367	230	1	1.1	0.9	19.0200	0.0000	0.0000	0.0000;
	262	1	0	0	0	0	2	0.9968206	-35.284541	115	1	1.1	0.9	19.0200	0.0000	0.0000	0.0000;
	263	2	0	0	0	0	2	1.0209496	-38.700562	13.8	1	1.1	0.9	19.0200	0.0000	0.0000	0.0000;
	264	1	14.61	4.14	0	0	2	1.019844	-45.264745	115	1	1.1	0.9	19.0200	0.0000	0.0000	0.0000;
	265	1	0	0	0	0	2	0.983483	-42.453498	230	1	1.1	0.9	19.0200	0.0000	0.0000	0.0000;
	266	1	8.75	2.48	0	0	2	0.9765172	-26.496559	115	1	1.1	0.9	19.0200	0.0000	0.0000	0.0000;
	267	2	0	0	0	0	2	0.983483	-42.453498	13.8	1	1.1	0.9	19.0200	0.0000	0.0000	0.0000;
	268	2	0	0	0	0	2	0.983483	-42.453498	13.8	1	1.1	0.9	19.0200	0.0000	0.0000	0.0000;
	269	2	0	0	0	0	2	0.983483	-42.453498	13.8	1	1.1	0.9	19.0200	0.0000	0.0000	0.0000;
	270	1	0	0	0	200	2	0.983526	-51.072654	230	1	1.1	0.9	19.0200	0.0000	0.0000	0.0000;
	271	1	0	0	0	200	2	1.0407412	-34.418588	115	1	1.1	0.9	19.0200	0.0000	0.0000	0.0000;
	272	2	0	0	0	0	2	0.9944664	-59.900549	500	1	1.1	0.9	19.0200	0.0000	0.0000	0.0000;
	273	1	10.58	3	0	0	2	0.9942107	-46.18503	115	1	1.1	0.9	19.0200	0.0000	0.0000	0.0000;
	274	1	0	0	0	65	2	1.0519839	-36.083906	230	1	1.1	0.9	19.0200	0.0000	0.0000	0.0000;
	275	1	145.29	41.17	0	80	2	1.0610732	-37.62094	115	1	1.1	0.9	19.0200	0.0000	0.0000	0.0000;
	276	1	8.08	2.29	0	0	2	1.0146122	-63.455954	115	1	1.1	0.9	19.0200	0.0000	0.0000	0.0000;
	277	1	0	0	0	0	2	1.0080853	-41.451393	230	1	1.1	0.9	19.0200	0.0000	0.0000	0.0000;
	278	1	0	0	0	0	2	1.0009262	-40.657445	115	1	1.1	0.9	19.0200	0.0000	0.0000	0.0000;
	279	2	0	0	0	0	2	1.0229103	-38.46106	13.8	1	1.1	0.9	19.0200	0.0000	0.0000	0.0000;
	280	2	0	0	0	0	2	1.033131	-35.846537	13.8	1	1.1	0.9	19.0200	0.0000	0.0000	0.0000;
	281	2	0	0	0	0	2	1.0335545	-36.027684	13.8	1	1.1	0.9	19.0200	0.0000	0.0000	0.0000;
	282	1	0	0	0	0	2	1.0054601	-34.099354	230	1	1.1	0.9	19.0200	0.0000	0.0000	0.0000;
	283	1	0	0	0	0	2	0.9809495	-21.694585	115	1	1.1	0.9	19.0200	0.0000	0.0000	0.0000;
	284	2	0	0	0	0	2	1.0374681	-26.336993	18	1	1.1	0.9	19.0200	0.0000	0.0000	0.0000;
	285	2	0	0	0	0	2	1.0301703	-28.522946	18	1	1.1	0.9	19.0200	0.0000	0.0000	0.0000;
	286	2	0	0	0	0	2	1.0198598	-31.266065	18	1	1.1	0.9	19.0200	0.0000	0.0000	0.0000;
	287	2	0	0	0	0	2	1.0250573	-30.087406	18	1	1.1	0.9	19.0200	0.0000	0.0000	0.0000;
	288	1	0	0	0	0	2	1.0192018	-31.035491	115	1	1.1	0.9	19.0200	0.0000	0.0000	0.0000;
	289	2	0	0	0	0	2	1	-24.927548	18	1	1.1	0.9	19.0200	0.0000	0.0000	0.0000;
	290	1	22.03	6.24	0	0	2	1.0325385	-53.987115	115	1	1.1	0.9	19.0200	0.0000	0.0000	0.0000;
	291	1	0	0	0	0	2	1.0267867	-33.957218	115	1	1.1	0.9	19.0200	0.0000	0.0000	0.0000;
	292	2	0	0	0	0	2	1.04	-31.062081	20	1	1.1	0.9	19.0200	0.0000	0.0000	0.0000;
	293	1	3.81	1.08	0	0	2	1.0048335	-43.492948	115	1	1.1	0.9	19.0200	0.0000	0.0000	0.0000;
	294	1	0	0	0	0	2	1.0193708	-35.223213	115	1	1.1	0.9	19.0200	0.0000	0.0000	0.0000;
	295	2	0	0	0	0	2	1.0049225	-30.643482	24	1	1.1	0.9	19.0200	0.0000	0.0000	0.0000;
	296	1	5.98	1.7	0	0	2	1.0391937	-48.267453	115	1	1.1	0.9	19.0200	0.0000	0.0000	0.0000;
	297	1	0	0	0	0	2	1.0082501	-58.354884	115	1	1.1	0.9	19.0200	0.0000	0.0000	0.0000;
	298	2	0	0	0	0	2	1	-55.840178	13.8	1	1.1	0.9	19.0200	0.0000	0.0000	0.0000;
	299	1	12.18	3.45	0	0	2	1.0311895	-50.214326	115	1	1.1	0.9	19.0200	0.0000	0.0000	0.0000;
	300	1	10.79	3.06	0	0	2	1.0060113	-59.931608	115	1	1.1	0.9	19.0200	0.0000	0.0000	0.0000;
	301	1	68.66	19.45	0	0	2	1.0078517	-42.494503	115	1	1.1	0.9	19.0200	0.0000	0.0000	0.0000;
	302	1	0	0	0	0	2	1.0026447	-41.762204	230	1	1.1	0.9	19.0200	0.0000	0.0000	0.0000;
	303	1	0	0	0	0	2	1.0032489	-39.982014	161	1	1.1	0.9	19.0200	0.0000	0.0000	0.0000;
	304	1	0	0	0	0	2	0.9959006	-36.539623	115	1	1.1	0.9	19.0200	0.0000	0.0000	0.0000;
	305	2	0	0	0	0	2	1.0315729	-35.533936	20	1	1.1	0.9	19.0200	0.0000	0.0000	0.0000;
	306	1	0	0	0	0	2	0.9986989	-42.84303	230	1	1.1	0.9	19.0200	0.0000	0.0000	0.0000;
	307	1	0	0	0	0	2	1.0063495	-38.451239	115	1	1.1	0.9	19.0200	0.0000	0.0000	0.0000;
	308	2	0	0	0	0	2	1	-32.803119	13.8	1	1.1	0.9	19.0200	0.0000	0.0000	0.0000;
	309	1	0	0	0	0	2	0.9995477	-33.398069	115	1	1.1	0.9	19.0200	0.0000	0.0000	0.0000;
	310	2	0	0	0	0	2	1	-26.430013	13.2	1	1.1	0.9	19.0200	0.0000	0.0000	0.0000;
	311	2	0	0	0	0	2	0.9995477	-33.398069	13.2	1	1.1	0.9	19.0200	0.0000	0.0000	0.0000;
	312	1	0	0	0	100	2	1.0055622	-49.459371	230	1	1.1	0.9	19.0200	0.0000	0.0000	0.0000;
	313	1	0	0	0	0	2	1.0067179	-52.454834	161	1	1.1	0.9	19.0200	0.0000	0.0000	0.0000;
	314	1	0	0	0	0	2	1.0101972	-53.010552	161	1	1.1	0.9	19.0200	0.0000	0.0000	0.0000;
	315	1	0	0	0	100	2	1.0150622	-53.753971	115	1	1.1	0.9	19.0200	0.0000	0.0000	0.0000;
	316	2	0	0	0	0	2	1.0351564	-42.492813	13.8	1	1.1	0.9	19.0200	0.0000	0.0000	0.0000;
	317	1	5.05	1.43	0	0	2	1.0107965	-62.526595	115	1	1.1	0.9	19.0200	0.0000	0.0000	0.0000;
	318	1	0	0	0	0	2	1.0141426	-37.680036	115	1	1.1	0.9	19.0200	0.0000	0.0000	0.0000;
	319	2	0	0	0	0	2	1.04	-29.742468	18	1	1.1	0.9	19.0200	0.0000	0.0000	0.0000;
	320	1	0	0	0	0	2	1.0116273	-37.611695	230	1	1.1	0.9	19.0200	0.0000	0.0000	0.0000;
	321	1	0	0	0	0	2	1.0063591	-35.171887	115	1	1.1	0.9	19.0200	0.0000	0.0000	0.0000;
	322	2	0	0	0	0	2	1.04	-28.872875	13.8	1	1.1	0.9	19.0200	0.0000	0.0000	0.0000;
	323	1	12.08	3.42	0	0	2	1.0014648	-43.545174	115	1	1.1	0.9	19.0200	0.0000	0.0000	0.0000;
	324	1	8.53	2.42	0	0	2	0.9967766	-50.67926	115	1	1.1	0.9	19.0200	0.0000	0.0000	0.0000;
	325	1	9.43	2.67	0	0	2	1.0086745	-60.956444	115	1	1.1	0.9	19.0200	0.0000	0.0000	0.0000;
	326	1	75.26	21.32	0	0	2	1.0049561	-53.893457	115	1	1.1	0.9	19.0200	0.0000	0.0000	0.0000;
	327	1	39.32	11.14	0	0	2	1.0089087	-34.34235	115	1	1.1	0.9	19.0200	0.0000	0.0000	0.0000;
	328	1	0	0	0	0	2	1.0141236	-61.196382	115	1	1.1	0.9	19.0200	0.0000	0.0000	0.0000;
	329	2	0	0	0	0	2	1.0133798	-59.32466	13.2	1	1.1	0.9	19.0200	0.0000	0.0000	0.0000;
	330	2	0	0	0	0	2	1.0048846	-54.372198	13.2	1	1.1	0.9	19.0200	0.0000	0.0000	0.0000;
	331	1	14.87	4.21	0	0	2	1.0091432	-63.901696	115	1	1.1	0.9	19.0200	0.0000	0.0000	0.0000;
	332	1	23.52	6.66	0	0	2	1.0156348	-72.017786	115	1	1.1	0.9	19.0200	0.0000	0.0000	0.0000;
	333	1	0	0	0	0	2	1.0069307	-33.342958	115	1	1.1	0.9	19.0200	0.0000	0.0000	0.0000;
	334	2	0	0	0	0	2	1.0391652	-25.760315	13.8	1	1.1	0.9	19.0200	0.0000	0.0000	0.0000;
	335	1	0	0	0	0	2	0.9828486	-22.51727	115	1	1.1	0.9	19.0200	0.0000	0.0000	0.0000;
	336	2	0	0	0	0	2	1	-14.208189	18	1	1.1	0.9	19.0200	0.0000	0.0000	0.0000;
	337	2	0	0	0	0	2	1	-14.186764	18	1	1.1	0.9	19.0200	0.0000	0.0000	0.0000;