function mpc = case_ACTIVSg2000
%CASE_ACTIVSG2000  Synthetic Texas 2000-bus power system model.
%
%   This is an entirely synthetic 2000 bus case, geographically situated
%   in the US state of Texas. The case is designed with a 500, 230, 161
%   and 115 kV transmission network to serve a load that roughly mimics
%   the actual population of its geographic footprint. The synthetic
%   transmission system was designed by algorithms described in [1] to be
%   statistically similar to actual transmission system models but without
%   modeling any actual lines.
%
%   When publishing results based on this data, please cite:
%
%   [1] A.B. Birchfield, T. Xu, K.M. Gegner, K.S. Shetye, T.J. Overbye,
%       "Grid Structural Characteristics as Validation Criteria for
%       Synthetic Networks," IEEE Transactions on Power Systems,
%       vol. 32, no. 4, pp. 3258-3265, July 2017.
%       DOI: 10.1109/TPWRS.2016.2616385
%
%   This is a synthetic power system model that does not represent the
%   actual grid. It was developed as part of the US ARPA-E GRID DATA
%   research project and contains no CEII.
%
%   One-line diagrams and other data formats available at:
%       https://electricgrids.engr.tamu.edu
%
%   August 9, 2018

%   Created from ACTIVSg2000_AUG-09-2018.pwb, saved by
%   PowerWorld Simulator, version 21, build date August 30, 2018,
%   then by MATPOWER 6.

%   MATPOWER
%   Copyright (c) 2017-2018 by A.B. Birchfield, T. Xu, K.M. Gegner, K.S. Shetye,
%   and T.J. Overbye
%   Licensed under the Creative Commons Attribution 4.0 International license,
%   http://creativecommons.org/licenses/by/4.0/

%% MATPOWER Case Format : Version 2
mpc.version = '2';

%%-----  Power Flow Data  -----%%
%% system MVA base
mpc.baseMVA = 100;

%% bus data
%	bus_i	type	Pd	Qd	Gs	Bs	area	Vm	Va	baseKV	zone	Vmax	Vmin	lam_P	lam_Q	mu_Vmax	mu_Vmin
mpc.bus = [
	1001	1	20.78	5.89	0	0	1	0.9839336	-22.646338	115	9	1.1	0.9	25.7500	-3.4800	0.0000	0.0000;
	1002	1	15.41	4.37	0	0	1	1.0229021	-18.132001	115	9	1.1	0.9	84.2100	0.4900	0.0000	0.0000;
	1003	1	0	0	0	0	1	1.012931	-17.011695	115	9	1.1	0.9	-6.7400	0.1400	0.0000	0.0000;
	1004	2	0	0	0	0	1	1.017406	-18.848732	230	9	1.1	0.9	-7.0800	6.0300	0.0000	0.0000;
	1005	1	0	0	0	0	1	1.0101076	-16.099297	115	9	1.1	0.9	-52.9600	-29.6300	0.0000	0.0000;
	1006	2	0	0	0	0	1	1.0036973	-13.943433	13.8	9	1.1	0.9	-50.4400	0.0000	0.0000	0.0000;
	1007	1	7.01	1.99	0	0.08	1	1.0300037	-18.50223	115	9	1.1	0.9	73.7600	0.0000	0.0000	0.0000;
	1008	1	0	0	0	0	1	1.0242318	-8.750765	115	9	1.1	0.9	-680.6900	29.8600	0.0000	0.0000;
	1009	2	0	0	0	0	1	1.0142528	-5.487293	13.8	9	1.1	0.9	-680.3200	29.7600	0.0000	0.0000;
	1010	1	0	0	0	-2.19	1	1.0300037	-16.859272	115	9	1.1	0.9	86.1300	0.0000	0.0000	0.0000;
	1011	2	0	0	0	0	1	1.0302222	-15.111129	22	9	1.1	0.9	86.0200	0.0000	0.0000	0.0000;
	1012	1	2.99	0.85	0	9.5	1	1.0168192	-25.304621	115	9	1.1	0.9	-344.5900	36.1000	0.0000	0.0000;
	1013	1	29.23	8.28	0	0	1	1.0095823	-15.448205	115	9	1.1	0.9	49.3400	-0.9800	0.0000	0.0000;
	1014	1	2.22	0.63	0	0	1	1.015959	-11.967074	115	9	1.1	0.9	71.8900	-7.3200	0.0000	0.0000;
	1015	1	7.51	2.13	0	0	1	1.0319511	-18.255397	115	9	1.1	0.9	81.0900	-0.1500	0.0000	0.0000;
	1016	1	2.89	0.82	0	30	1	1.0189172	-15.496608	115	9	1.1	0.9	-1.9100	-27.3300	0.0000	0.0000;
	1017	1	18.34	5.2	0	0	1	0.9904413	-21.41216	115	9	1.1	0.9	26.5600	-2.7100	0.0000	0.0000;
	1018	1	0.07	0.02	0	0	1	0.9965435	-20.156205	115	9	1.1	0.9	29.9100	-2.1500	0.0000	0.0000;
	1019	1	61.78	17.5	0	142.98	1	1.0040552	-22.237084	115	9	1.1	0.9	21.2500	-3.6000	0.0000	0.0000;
	1020	1	0	0	0	76.73	1	1.0259069	-15.252842	115	9	1.1	0.9	-53.9700	0.0000	0.0000	0.0000;
	1021	2	0	0	0	0	1	1.0016168	-8.668233	13.8	9	1.1	0.9	-52.3600	0.0000	0.0000	0.0000;
	1022	1	0	0	0	0	1	1.0156825	-16.129727	115	9	1.1	0.9	-6.0700	0.1900	0.0000	0.0000;
	1023	2	0	0	0	0	1	1.0100036	-7.245683	13.8	9	1.1	0.9	-5.9200	0.0000	0.0000	0.0000;
	1024	1	63.04	17.86	0	0	1	0.9971655	-19.133526	115	9	1.1	0.9	32.4600	-0.9900	0.0000	0.0000;
	1025	1	0	0	0	0	1	1.021133	-14.197091	115	9	1.1	0.9	-52.2600	-11.8400	0.0000	0.0000;
	1026	2	0	0	0	0	1	1.0000036	-4.707268	13.8	9	1.1	0.9	-49.5300	0.0000	0.0000	0.0000;
	1027	1	101.21	28.68	0	75	1	1.0139861	-25.752862	115	9	1.1	0.9	-5.6400	-2.4900	0.0000	0.0000;
	1028	1	10.01	2.84	0	0	1	1.0190224	-17.633912	115	9	1.1	0.9	-4.8900	0.5000	0.0000	0.0000;
	1029	1	83.18	23.57	0	65.41	1	1.0300037	-24.955148	115	9	1.1	0.9	-0.1500	-0.6100	0.0000	0.0000;
	1030	1	24.63	6.98	0	0	1	1.0182991	-13.494046	115	9	1.1	0.9	99.1600	-10.0500	0.0000	0.0000;
	1031	1	9.25	2.62	0	0	1	1.0191923	-17.690257	115	9	1.1	0.9	61.7400	-0.0300	0.0000	0.0000;
	1032	1	0	0	0	0	1	1.0064914	-12.394114	115	9	1.1	0.9	132.8800	-43.5100	0.0000	0.0000;
	1033	2	0	0	0	50	1	1.0259109	-16.949237	230	9	1.1	0.9	51.5300	-22.1400	0.0000	0.0000;
	1034	1	0	0	0	0	1	1.0064769	-14.328033	115	9	1.1	0.9	-27.5400	-36.4900	0.0000	0.0000;
	1035	2	0	0	0	0	1	1.0000036	-11.038753	13.8	9	1.1	0.9	-23.3600	0.0000	0.0000	0.0000;
	1036	1	13.6	3.85	0	0	1	1.000559	-12.598627	115	9	1.1	0.9	107.4400	-21.8600	0.0000	0.0000;
	1037	1	102.24	28.97	0	0	1	0.9813726	-22.48228	115	9	1.1	0.9	27.0800	-3.0000	0.0000	0.0000;
	1038	1	0	0	0	0	1	1.0200949	-7.759505	115	9	1.1	0.9	110.7900	-14.8600	0.0000	0.0000;
	1039	2	0	0	0	0	1	1.0000035	-2.38994	22	9	1.1	0.9	112.0800	0.0000	0.0000	0.0000;
	1040	1	44.36	12.57	0	0	1	0.995842	-20.396949	115	9	1.1	0.9	29.6800	-1.7100	0.0000	0.0000;
	1041	1	0	0	0	0	1	1.0049175	-15.121136	115	9	1.1	0.9	-1038.7500	23.7600	0.0000	0.0000;
	1042	2	0	0	0	0	1	1.0049175	-15.121136	13.8	9	1.1	0.9	-1038.7500	23.7600	0.0000	0.0000;
	1043	2	0	0	0	0	1	1.0000036	-11.883763	13.8	9	1.1	0.9	-1037.8800	0.0000	0.0000	0.0000;
	1044	1	14.68	4.16	0	0	1	1.0151811	-25.876036	115	9	1.1	0.9	-141.5500	-40.2700	0.0000	0.0000;
	1045	1	98.56	27.93	0	0	1	0.9827629	-24.352257	115	9	1.1	0.9	18.0500	-3.5000	0.0000	0.0000;
	1046	1	11.08	3.14	0	12	1	1.0281129	-22.494317	115	9	1.1	0.9	-423.4200	31.5500	0.0000	0.0000;
	1047	1	0	0	0	0	1	1.0086095	-13.372118	115	9	1.1	0.9	47.2400	-1.2800	0.0000	0.0000;
	1048	2	0	0	0	0	1	1.0086095	-13.372118	18	9	1.1	0.9	47.2400	-1.2800	0.0000	0.0000;
	1049	2	0	0	0	0	1	1.0086095	-13.372118	18	9	1.1	0.9	47.2400	-1.2800	0.0000	0.0000;
	1050	2	0	0	0	0	1	1.0000036	-8.317495	18	9	1.1	0.9	47.1700	0.0000	0.0000	0.0000;
	1051	2	0	0	0	0	1	1.0000036	-6.84264	18	9	1.1	0.9	47.0500	0.0000	0.0000	0.0000;
	1052	2	0	0	0	0	1	1.0009878	-9.168399	18	9	1.1	0.9	47.1300	0.0000	0.0000	0.0000;
	1053	2	0	0	0	0	1	1.0257297	-17.34203	230	9	1.1	0.9	46.3800	-0.3200	0.0000	0.0000;
	1054	1	14.99	4.25	0	0	1	1.0125102	-22.284887	115	9	1.1	0.9	-18.5800	0.2400	0.0000	0.0000;
	1055	1	3.98	1.13	0	0	1	1.0056314	-18.059023	115	9	1.1	0.9	-8.0700	-0.0300	0.0000	0.0000;
	1056	1	0	0	0	56.13	1	1.0300037	-21.836825	115	9	1.1	0.9	-20.8400	0.0000	0.0000	0.0000;
	1057	2	0	0	0	0	1	1.0300037	-21.836825	18	9	1.1	0.9	-20.8400	0.0000	0.0000	0.0000;
	1058	1	13.46	3.81	0	0	1	1.0257559	-11.359509	115	9	1.1	0.9	-585.8000	13.3000	0.0000	0.0000;
	1059	2	0	0	0	0	1	1.0257559	-11.359509	22	9	1.1	0.9	-585.8000	13.3000	0.0000	0.0000;
	1060	2	0	0	0	0	1	1.0257559	-11.359509	22	9	1.1	0.9	-585.8000	13.3000	0.0000	0.0000;
	1061	1	0	0	0	0	1	1.011891	-17.239365	115	9	1.1	0.9	-60.9200	-23.1300	0.0000	0.0000;
	1062	2	0	0	0	0	1	1.011891	-17.239365	13.8	9	1.1	0.9	-60.9200	-23.1300	0.0000	0.0000;
	1063	2	0	0	0	0	1	1.011891	-17.239365	13.8	9	1.1	0.9	-60.9200	-23.1300	0.0000	0.0000;
	1064	1	123.76	35.07	0	0	1	0.9768367	-24.054482	115	9	1.1	0.9	23.2500	-3.5400	0.0000	0.0000;
	1065	1	0	0	0	0	1	1.0078425	-14.9558	115	9	1.1	0.9	-2026.4900	113.3100	0.0000	0.0000;
	1066	2	0	0	0	0	1	1.0000036	-7.440687	13.8	9	1.1	0.9	-2023.9500	0.0000	0.0000	0.0000;
	1067	1	101.55	28.77	0	0	1	1.0018217	-15.690254	115	9	1.1	0.9	-45.3700	-60.7700	0.0000	0.0000;
	1068	1	59.4	16.83	0	0	1	0.9876132	-16.454991	115	9	1.1	0.9	37.4700	-15.8100	0.0000	0.0000;
	1069	1	0	0	0	0	1	1.0272175	-8.876951	115	9	1.1	0.9	-619.5200	14.7100	0.0000	0.0000;
	1070	2	0	0	0	0	1	1.0400036	-4.382542	13.8	9	1.1	0.9	-617.1200	0.0000	0.0000	0.0000;
	1071	1	91.46	25.91	0	0	1	0.9912743	-21.394129	115	9	1.1	0.9	27.6900	-3.3500	0.0000	0.0000;
	1072	2	0	0	0	0	1	1.0100037	-12.054718	18	9	1.1	0.9	28.0300	0.0000	0.0000	0.0000;
	1073	2	0	0	0	0	1	1.0100037	-5.661534	18	9	1.1	0.9	28.3400	0.0000	0.0000	0.0000;
	1074	2	0	0	0	0	1	1.0100037	-7.70557	18	9	1.1	0.9	28.2000	0.0000	0.0000	0.0000;
	1075	2	0	0	0	0	1	1.0100037	-10.463225	18	9	1.1	0.9	28.1600	0.0000	0.0000	0.0000;
	1076	2	0	0	0	0	1	0.9912743	-21.394129	18	9	1.1	0.9	27.6900	-3.3500	0.0000	0.0000;
	1077	2	0	0	0	0	1	0.9912743	-21.394129	18	9	1.1	0.9	27.6900	-3.3500	0.0000	0.0000;
	1078	2	0	0	0	0	1	1.0100037	-10.982473	18	9	1.1	0.9	28.1900	0.0000	0.0000	0.0000;
	1079	2	0	0	0	0	1	1.0198409	-38.334204	500	9	1.1	0.9	38.0200	-10.2300	0.0000	0.0000;
	1080	2	0	0	0	0	1	1.0100037	-10.401045	18	9	1.1	0.9	28.0600	0.0000	0.0000	0.0000;
	1081	2	0	0	0	79.77	1	1.0300036	-18.68991	230	9	1.1	0.9	46.2600	0.0000	0.0000	0.0000;
	1082	2	0	0	0	0	1	1.0233299	-6.05054	115	9	1.1	0.9	-589.2600	7.3400	0.0000	0.0000;
	1083	1	39.95	11.32	0	26.15	1	1.0227241	-9.981271	115	9	1.1	0.9	102.1700	-13.7100	0.0000	0.0000;
	1084	2	0	0	0	0	1	1.0283078	-16.471192	115	9	1.1	0.9	-42.6500	-7.5000	0.0000	0.0000;
	1085	1	21.3	6.03	0	0	1	1.011558	-15.327359	115	9	1.1	0.9	44.1000	-0.9300	0.0000	0.0000;
	1086	1	39.67	11.24	0	30	1	1.0186846	-17.567109	115	9	1.1	0.9	47.0000	-1.1800	0.0000	0.0000;
	1087	1	0.91	0.26	0	14.05	1	1.0300036	-16.230416	115	9	1.1	0.9	-514.2000	0.0000	0.0000	0.0000;
	1088	2	0	0	0	0	1	1.0000036	-11.910186	115	9	1.1	0.9	82.0500	0.0000	0.0000	0.0000;
	1089	1	40.6	11.5	0	0	1	0.9866587	-21.244278	115	9	1.1	0.9	-12.4400	-0.2700	0.0000	0.0000;
	1090	2	0	0	0	0	1	1.0200037	-16.064038	115	9	1.1	0.9	34.4400	0.0000	0.0000	0.0000;
	1091	1	11.62	3.29	0	0	1	1.0327141	-30.810235	161	9	1.1	0.9	-23.2600	-0.7600	0.0000	0.0000;
	2001	1	48.36	13.7	0	0	2	1.0028305	-59.60226	161	11	1.1	0.9	141.9600	14.2400	0.0000	0.0000;
	2002	1	0	0	0	0	2	1.0127504	-61.189054	500	11	1.1	0.9	148.2000	16.9700	0.0000	0.0000;
	2003	1	0	0	0	0	2	1.0114428	-63.443341	161	11	1.1	0.9	155.9200	19.8300	0.0000	0.0000;
	2004	2	0	0	0	0	2	1.0127504	-61.189054	13.8	11	1.1	0.9	148.2000	16.9700	0.0000	0.0000;
	2005	2	0	0	0	0	2	1.0127504	-61.189054	13.8	11	1.1	0.9	148.2000	16.9700	0.0000	0.0000;
	2006	2	0	0	0	0	2	1.0127504	-61.189054	13.8	11	1.1	0.9	148.2000	16.9700	0.0000	0.0000;
	2007	1	9.54	2.7	0	0	2	1.0037001	-59.372996	161	11	1.1	0.9	144.5600	16.5900	0.0000	0.0000;
	2008	1	8.06	2.28	0	0	2	1.0195642	-32.538822	161	10	1.1	0.9	6.8600	-1.0900	0.0000	0.0000;
	2009	1	39.14	11.09	0	120	2	1.0240415	-44.929252	161	11	1.1	0.9	19.7100	0.0000	0.0000	0.0000;
	2010	1	56.81	16.09	0	30.17	2	1.0300037	-36.203466	161	10	1.1	0.9	-47.2000	0.0000	0.0000	0.0000;
	2011	1	0	0	0	0	2	1.0391574	-31.780334	500	10	1.1	0.9	24.3600	-0.3500	0.0000	0.0000;
	2012	1	0	0	0	0	2	1.0281418	-29.554483	161	10	1.1	0.9	21.8000	-0.7200	0.0000	0.0000;
	2013	2	0	0	0	0	2	1.0308001	-29.441672	18	10	1.1	0.9	24.3700	-0.3600	0.0000	0.0000;
	2014	1	25.43	7.2	0	0	2	1.0192746	-33.128426	161	10	1.1	0.9	-1.8700	-0.8300	0.0000	0.0000;
	2015	1	4.69	1.33	0	0	2	1.0119269	-62.94927	161	11	1.1	0.9	247.0500	17.4400	0.0000	0.0000;
	2016	1	69.27	19.63	0	0	2	1.0110365	-69.563089	161	11	1.1	0.9	2322.9100	545.8200	0.0000	0.0000;
	2017	1	0	0	0	-200	2	1.0309429	-31.944266	500	10	1.1	0.9	21.4800	0.1900	0.0000	0.0000;
	2018	1	0	0	0	0	2	1.0285229	-31.154853	161	10	1.1	0.9	21.6700	-0.1000	0.0000	0.0000;
	2019	2	0	0	0	0	2	1.0309429	-31.944266	20	10	1.1	0.9	21.4800	0.1900	0.0000	0.0000;
	2020	1	47.97	13.59	0	0	2	0.9971221	-44.577474	161	11	1.1	0.9	25.6900	4.2600	0.0000	0.0000;
	2021	1	0	0	0	0	2	1.0147857	-56.329248	500	11	1.1	0.9	135.3500	9.9500	0.0000	0.0000;
	2022	1	11.56	3.28	0	0	2	1.0110382	-58.260249	161	11	1.1	0.9	138.8400	13.0800	0.0000	0.0000;
	2023	2	0	0	0	0	2	1.0200037	-54.766915	13.8	11	1.1	0.9	134.8100	0.0000	0.0000	0.0000;
	2024	2	0	0	0	0	2	1.0200037	-54.102087	13.8	11	1.1	0.9	134.6600	0.0000	0.0000	0.0000;
	2025	1	39.62	11.23	0	0	2	0.9957092	-43.814611	161	11	1.1	0.9	17.8400	1.5300	0.0000	0.0000;
	2026	1	18.57	5.26	0	0	2	1.0269597	-30.76094	161	10	1.1	0.9	23.8600	-0.4700	0.0000	0.0000;
	2027	1	3.55	1.01	0	0	2	1.0033184	-60.032422	161	11	1.1	0.9	143.7200	14.9800	0.0000	0.0000;
	2028	1	14.24	4.03	0	0	2	0.9973652	-46.944103	161	11	1.1	0.9	44.1300	10.6900	0.0000	0.0000;
	2029	1	3.2	0.91	0	0	2	1.0258493	-32.521904	161	10	1.1	0.9	-8.6900	-0.5600	0.0000	0.0000;
	2030	1	47.15	13.36	0	0	2	0.9899978	-63.651835	161	11	1.1	0.9	163.8000	24.6200	0.0000	0.0000;
	2031	1	5.77	1.63	0	0	2	1.0274656	-29.477812	161	10	1.1	0.9	-81.8900	7.2400	0.0000	0.0000;
	2032	1	3.35	0.95	0	0	2	1.0056747	-58.769309	161	11	1.1	0.9	142.6200	15.3300	0.0000	0.0000;
	2033	1	13.57	3.85	0	0	2	0.9926513	-65.160443	161	11	1.1	0.9	172.6100	26.2800	0.0000	0.0000;
	2034	1	5.34	1.51	0	0	2	1.0087755	-68.886605	161	11	1.1	0.9	2456.8200	590.2500	0.0000	0.0000;
	2035	1	4.68	1.33	0	0	2	1.0225087	-30.410783	161	10	1.1	0.9	-98.5100	10.2600	0.0000	0.0000;
	2036	1	41.59	11.78	0	0	2	1.0010787	-44.178555	161	11	1.1	0.9	20.6100	1.7700	0.0000	0.0000;
	2037	1	3.5	0.99	0	0	2	1.0231762	-63.290496	161	11	1.1	0.9	275.4100	12.4300	0.0000	0.0000;
	2038	1	2.6	0.74	0	0	2	1.0084005	-63.914513	161	11	1.1	0.9	159.8400	21.4800	0.0000	0.0000;
	2039	1	5.56	1.58	0	0	2	0.9953598	-60.323988	161	11	1.1	0.9	168.9500	23.3000	0.0000	0.0000;
	2040	1	15.9	4.51	0	0	2	1.0085073	-58.929562	161	11	1.1	0.9	140.7400	13.7500	0.0000	0.0000;
	2041	1	0	0	0	0	2	1.0289976	-27.374918	161	10	1.1	0.9	21.8900	-0.5400	0.0000	0.0000;
	2042	2	0	0	0	0	2	1.0204143	-24.804568	18	10	1.1	0.9	21.9000	-2.8900	0.0000	0.0000;
	2043	1	4.24	1.2	0	0	2	1.0095614	-69.195156	161	11	1.1	0.9	2400.3300	573.9300	0.0000	0.0000;
	2044	1	27.4	7.76	0	0	2	1.018029	-65.016518	161	11	1.1	0.9	261.0300	18.8300	0.0000	0.0000;
	2045	1	22.61	6.4	0	0	2	0.9965663	-45.116654	161	11	1.1	0.9	29.4400	5.7000	0.0000	0.0000;
	2046	1	22.13	6.27	0	0	2	1.0083263	-68.498314	161	11	1.1	0.9	2515.8800	603.8800	0.0000	0.0000;
	2047	1	14.96	4.24	0	0	2	1.0102323	-64.342317	161	11	1.1	0.9	1395.5700	363.4200	0.0000	0.0000;
	2048	1	6.42	1.82	0	0	2	1.031688	-31.522443	161	10	1.1	0.9	-50.4400	2.9400	0.0000	0.0000;
	2049	1	11.57	3.28	0	0	2	1.0212137	-40.667536	161	10	1.1	0.9	-0.7900	2.0600	0.0000	0.0000;
	2050	1	3.66	1.04	0	0	2	0.9955969	-62.848806	161	11	1.1	0.9	156.1600	20.5300	0.0000	0.0000;
	2051	1	17.85	5.06	0	0	2	0.9932948	-53.824107	161	11	1.1	0.9	119.2700	25.2600	0.0000	0.0000;
	2052	1	24.84	7.04	0	0	2	1.0197355	-31.658607	161	10	1.1	0.9	14.1300	-1.1100	0.0000	0.0000;
	2053	1	29.13	8.25	0	0	2	0.993578	-59.003536	161	11	1.1	0.9	109.2800	18.7400	0.0000	0.0000;
	2054	1	0	0	0	0	2	0.9992403	-42.825425	500	11	1.1	0.9	19.4700	0.9900	0.0000	0.0000;
	2055	1	49.62	14.06	0	0	2	0.9990468	-43.652909	161	11	1.1	0.9	20.7500	1.9800	0.0000	0.0000;
	2056	2	0	0	0	0	2	0.9992403	-42.825425	18	11	1.1	0.9	19.4700	0.9900	0.0000	0.0000;
	2057	2	0	0	0	0	2	0.9900036	-38.424	18	11	1.1	0.9	19.3300	0.0000	0.0000	0.0000;
	2058	1	0	0	0	0	2	1.0292536	-26.946807	161	10	1.1	0.9	22.1100	-0.5300	0.0000	0.0000;
	2059	2	0	0	0	0	2	1.0192676	-23.60635	13.8	10	1.1	0.9	22.0900	-0.5300	0.0000	0.0000;
	2060	1	3.8	1.08	0	0	2	0.9987303	-61.567396	161	11	1.1	0.9	151.9700	19.2900	0.0000	0.0000;
	2061	1	0	0	0	0	2	1.0241813	-37.153069	161	10	1.1	0.9	-16.0700	0.8800	0.0000	0.0000;
	2062	2	0	0	0	0	2	1.0200037	-34.856437	18	10	1.1	0.9	-16.0600	0.0000	0.0000	0.0000;
	2063	1	65.62	18.59	0	40	2	1.0094256	-67.860557	161	11	1.1	0.9	2558.9800	612.1200	0.0000	0.0000;
	2064	1	10.05	2.85	0	0	2	1.0042757	-59.897232	161	11	1.1	0.9	145.0500	16.1800	0.0000	0.0000;
	2065	1	78.36	22.2	0	100	2	1.0266022	-65.248986	161	11	1.1	0.9	317.7700	0.0000	0.0000	0.0000;
	2066	1	7.11	2.02	0	0	2	1.0205541	-27.500251	161	10	1.1	0.9	-119.1700	10.1000	0.0000	0.0000;
	2067	1	53.97	15.29	0	0	2	0.9938774	-43.737026	161	11	1.1	0.9	13.7100	1.0900	0.0000	0.0000;
	2068	1	5.76	1.63	0	0	2	1.0000156	-41.705083	161	11	1.1	0.9	-3.0800	-0.2200	0.0000	0.0000;
	2069	1	21.92	6.21	0	120	2	1.0256589	-68.742467	161	11	1.1	0.9	211.3000	0.0000	0.0000	0.0000;
	2070	1	0	0	0	0	2	1.0020167	-41.28671	161	11	1.1	0.9	-9.2800	-0.1900	0.0000	0.0000;
	2071	2	0	0	0	0	2	1.0000036	-37.610519	18	11	1.1	0.9	-9.2200	0.0000	0.0000	0.0000;
	2072	1	9.71	2.75	0	0	2	1.0193101	-66.865499	161	11	1.1	0.9	196.2700	48.1600	0.0000	0.0000;
	2073	1	0	0	0	0	2	1.0206805	-24.994746	161	10	1.1	0.9	-134.8900	8.3800	0.0000	0.0000;
	2074	1	0	0	0	0	2	1.0103706	-23.14277	115	10	1.1	0.9	-187.9600	4.7300	0.0000	0.0000;
	2075	1	0	0	0	0	2	1.0103706	-23.14277	115	10	1.1	0.9	-187.9600	4.7300	0.0000	0.0000;
	2076	2	0	0	0	0	2	1.0259186	-24.097157	24	10	1.1	0.9	-134.9500	8.3600	0.0000	0.0000;
	2077	1	0	0	0	0	2	1.0234359	-60.875623	161	11	1.1	0.9	244.4700	11.6100	0.0000	0.0000;
	2078	2	0	0	0	0	2	1.0200037	-57.562196	13.8	11	1.1	0.9	242.7000	0.0000	0.0000	0.0000;
	2079	1	4.48	1.27	0	0	2	1.0315049	-34.430602	161	10	1.1	0.9	-48.5300	1.3600	0.0000	0.0000;
	2080	1	16.93	4.8	0	0	2	0.9988796	-57.174905	161	11	1.1	0.9	160.8500	24.6900	0.0000	0.0000;
	2081	1	4.46	1.26	0	0	2	1.0029399	-64.71821	161	11	1.1	0.9	166.9900	24.3400	0.0000	0.0000;
	2082	1	59.03	16.73	0	0	2	1.0054662	-44.525835	161	11	1.1	0.9	20.4200	1.5300	0.0000	0.0000;
	2083	2	0	0	0	0	2	1.0200037	-42.953793	20	11	1.1	0.9	20.3100	1.4800	0.0000	0.0000;
	2084	2	0	0	0	0	2	1.0054662	-44.525835	20	11	1.1	0.9	20.4200	1.5300	0.0000	0.0000;
	2085	2	0	0	0	0	2	1.0054662	-44.525835	20	11	1.1	0.9	20.4200	1.5300	0.0000	0.0000;
	2086	1	2.19	0.62	0	0	2	0.9966171	-59.135878	161	11	1.1	0.9	165.9200	23.9800	0.0000	0.0000;
	2087	1	7.9	2.24	0	0	2	1.0234535	-27.335879	161	10	1.1	0.9	-109.6900	9.0500	0.0000	0.0000;
	2088	1	0	0	0	0	2	1.0010231	-41.405037	161	11	1.1	0.9	-5.3400	-0.2400	0.0000	0.0000;
	2089	2	0	0	0	0	2	1.0000036	-37.804418	24	11	1.1	0.9	-5.2800	0.0000	0.0000	0.0000;
	2090	1	2.42	0.69	0	0	2	1.0037195	-60.651608	161	11	1.1	0.9	146.6600	16.3500	0.0000	0.0000;
	2091	1	17.05	4.83	0	0	2	1.0250043	-33.796582	161	10	1.1	0.9	-72.4200	7.2000	0.0000	0.0000;
	2092	1	24.11	6.83	0	0	2	1.0082536	-66.176092	161	11	1.1	0.9	2569.9700	618.2600	0.0000	0.0000;
	2093	1	0	0	0	0	2	1.0287779	-30.313058	161	10	1.1	0.9	21.7400	-0.4300	0.0000	0.0000;
	2094	2	0	0	0	0	2	1.0287779	-30.313058	13.8	10	1.1	0.9	21.7400	-0.4300	0.0000	0.0000;
	2095	2	0	0	0	0	2	1.0287779	-30.313058	13.8	10	1.1	0.9	21.7400	-0.4300	0.0000	0.0000;
	2096	1	0	0	0	-68.51	2	1.0299997	-27.645227	500	10	1.1	0.9	9.9700	0.6400	0.0000	0.0000;
	2097	1	0	0	0	0	2	1.0286671	-27.098475	230	10	1.1	0.9	7.2600	0.5800	0.0000	0.0000;
	2098	1	0	0	0	0	2	1.033775	-30.224427	161	10	1.1	0.9	-18.4100	-1.6600	0.0000	0.0000;
	2099	2	0	0	0	0	2	1.0295321	-27.504092	18	10	1.1	0.9	9.9600	0.0000	0.0000	0.0000;
	2100	2	0	0	0	0	2	1.0207998	-25.039206	18	10	1.1	0.9	9.9300	0.0000	0.0000	0.0000;
	2101	1	0	0	0	0	2	1.0123899	-62.293898	500	11	1.1	0.9	150.8700	18.3100	0.0000	0.0000;
	2102	1	0	0	0	0	2	1.0131827	-63.73776	161	11	1.1	0.9	176.2200	27.2000	0.0000	0.0000;
	2103	2	0	0	0	0	2	1.0123899	-62.293898	20	11	1.1	0.9	150.8700	18.3100	0.0000	0.0000;
	2104	2	0	0	0	0	2	1.0123899	-62.293898	20	11	1.1	0.9	150.8700	18.3100	0.0000	0.0000;
	2105	2	0	0	0	0	2	1.0123899	-62.293898	20	11	1.1	0.9	150.8700	18.3100	0.0000	0.0000;
	2106	1	14.4	4.08	0	0	2	0.9910979	-65.805332	161	11	1.1	0.9	178.0800	28.5300	0.0000	0.0000;
	2107	1	74.15	21.01	0	0	2	1.0078222	-64.606397	161	11	1.1	0.9	192.4900	27.8800	0.0000	0.0000;
	2108	1	2.14	0.61	0	0	2	1.0034813	-43.407819	161	10	1.1	0.9	-182.5800	88.3600	0.0000	0.0000;
	2109	1	33.81	9.58	0	0	2	1.010155	-46.060351	161	11	1.1	0.9	29.5300	4.9400	0.0000	0.0000;
	2110	1	8.59	2.43	0	50	2	1.0267183	-61.949264	161	11	1.1	0.9	257.1700	0.0000	0.0000	0.0000;
	2111	1	13.95	3.95	0	0	2	0.9973075	-48.6609	161	11	1.1	0.9	-69.6100	41.0200	0.0000	0.0000;
	2112	1	4.54	1.29	0	0	2	0.9947264	-49.07163	161	11	1.1	0.9	66.3900	17.3200	0.0000	0.0000;
	2113	1	0	0	0	0	2	1.0146803	-55.860332	500	11	1.1	0.9	133.9900	9.7700	0.0000	0.0000;
	2114	1	70.78	20.05	0	0	2	1.0123542	-57.144719	161	11	1.1	0.9	136.1600	11.9500	0.0000	0.0000;
	2115	2	0	0	0	0	2	1.0058027	-51.873841	13.8	11	1.1	0.9	132.2500	10.0800	0.0000	0.0000;
	2116	2	0	0	0	0	2	1.0104495	-53.794824	13.8	11	1.1	0.9	133.1500	9.8900	0.0000	0.0000;
	2117	2	0	0	0	0	2	1.0030718	-51.23565	13.8	11	1.1	0.9	132.1800	10.1200	0.0000	0.0000;
	2118	2	0	0	0	0	2	1.001705	-50.728714	13.8	11	1.1	0.9	131.9000	10.1900	0.0000	0.0000;
	2119	2	0	0	0	0	2	1.0093702	-53.343166	13.8	11	1.1	0.9	132.9700	9.9300	0.0000	0.0000;
	2120	2	0	0	0	0	2	1.0100037	-50.974945	13.8	11	1.1	0.9	132.6900	0.0000	0.0000	0.0000;
	2121	1	2.33	0.66	0	0	2	1.0072293	-59.561706	161	11	1.1	0.9	142.7900	14.6600	0.0000	0.0000;
	2122	1	6.72	1.9	0	0	2	0.9976392	-60.762015	161	11	1.1	0.9	151.1300	19.2700	0.0000	0.0000;
	2123	2	0	0	0	0	2	1.0294908	-26.71907	161	10	1.1	0.9	21.9000	-0.5800	0.0000	0.0000;
	2124	1	21.29	6.03	0	0	2	0.9900034	-66.877809	161	11	1.1	0.9	185.1500	31.6200	0.0000	0.0000;
	2125	1	4.06	1.15	0	0	2	0.996358	-66.944981	161	11	1.1	0.9	282.3300	18.7500	0.0000	0.0000;
	2126	1	14.24	4.03	0	0	2	1.0126625	-66.636731	161	11	1.1	0.9	433.8600	-10.0600	0.0000	0.0000;
	2127	2	0	0	0	-184.86	2	1.0400037	-33.644241	500	10	1.1	0.9	25.3800	0.0000	0.0000	0.0000;
	2128	1	0	0	0	0	2	1.0303186	-32.154116	161	10	1.1	0.9	24.6700	-0.5100	0.0000	0.0000;
	2129	1	6.63	1.88	0	0	2	0.9941082	-65.72191	161	11	1.1	0.9	177.8900	27.7500	0.0000	0.0000;
	2130	1	0	0	0	0	2	1.005481	-42.032756	161	10	1.1	0.9	-210.8000	96.3000	0.0000	0.0000;
	2131	1	0	0	0	0	2	1.000627	-39.465573	115	10	1.1	0.9	-270.0100	97.4600	0.0000	0.0000;
	2132	1	11.94	3.38	0	10	2	1.0167576	-41.185988	115	10	1.1	0.9	-264.3100	99.5600	0.0000	0.0000;
	2133	1	5.68	1.61	0	0	2	1.0181866	-60.200361	161	11	1.1	0.9	228.4300	15.1400	0.0000	0.0000;
	3001	1	0	0	0	0	3	1.0137236	-55.704689	230	28	1.1	0.9	47.3800	6.4700	0.0000	0.0000;
	3002	1	112.86	31.98	0	0	3	1.0017833	-58.138561	115	28	1.1	0.9	45.2300	5.4500	0.0000	0.0000;
	3003	1	0	0	0	0	3	1.0178015	-18.168179	115	27	1.1	0.9	-695.0700	17.0000	0.0000	0.0000;
	3004	2	0	0	0	0	3	1.012923	-16.578644	18	27	1.1	0.9	-694.7500	16.9300	0.0000	0.0000;
	3005	1	7.34	2.08	0	0	3	1.0200387	-58.122796	115	28	1.1	0.9	20.2200	2.0100	0.0000	0.0000;
	3006	1	7.35	2.08	0	0	3	1.0052002	-26.758125	115	27	1.1	0.9	-794.6200	136.2000	0.0000	0.0000;
	3007	1	14.96	4.24	0	0	3	1.0157044	-24.597087	115	27	1.1	0.9	-1158.2600	188.5800	0.0000	0.0000;
	3008	1	19.81	5.61	0	0	3	0.9963778	-36.954705	115	27	1.1	0.9	-393.0600	160.7100	0.0000	0.0000;
	3009	1	12.54	3.55	0	0	3	1.0213724	-31.108449	115	28	1.1	0.9	-263.4100	27.7100	0.0000	0.0000;
	3010	1	4.67	1.32	0	0	3	1.0025526	-57.072528	115	28	1.1	0.9	20.4500	1.7200	0.0000	0.0000;
	3011	1	27.14	7.69	0	0	3	1.0168172	-61.057449	115	28	1.1	0.9	287.9000	37.4400	0.0000	0.0000;
	3012	1	0.56	0.16	0	0	3	1.0182316	-60.658779	115	28	1.1	0.9	300.4400	34.5300	0.0000	0.0000;
	3013	1	64.56	18.29	0	65	3	1.0188327	-28.428432	115	27	1.1	0.9	-960.1800	183.8600	0.0000	0.0000;
	3014	1	22	6.23	0	0	3	1.0190822	-53.241903	115	28	1.1	0.9	76.1700	27.9700	0.0000	0.0000;
	3015	1	5.36	1.52	0	0	3	1.01533	-16.953076	115	27	1.1	0.9	-269.5900	-197.3100	0.0000	0.0000;
	3016	1	0	0	0	0	3	1.0119036	-21.862245	115	27	1.1	0.9	-1129.7900	123.3300	0.0000	0.0000;
	3017	2	0	0	0	0	3	1.0100036	-16.668576	18	27	1.1	0.9	-1138.8300	0.0000	0.0000	0.0000;
	3018	1	0	0	0	0	3	1.0303312	-29.038546	230	27	1.1	0.9	-157.1900	-28.1900	0.0000	0.0000;
	3019	1	0	0	0	40.95	3	1.0300036	-30.63772	115	27	1.1	0.9	-213.1900	0.0000	0.0000	0.0000;
	3020	2	0	0	0	0	3	1.0300036	-24.91851	13.8	27	1.1	0.9	-154.1300	0.0000	0.0000	0.0000;
	3021	1	1.94	0.55	0	0	3	1.0053529	-35.541844	115	27	1.1	0.9	-338.6300	100.9900	0.0000	0.0000;
	3022	1	24.59	6.97	0	0	3	0.9989041	-18.045227	115	27	1.1	0.9	-50.0000	-138.8000	0.0000	0.0000;
	3023	1	10.41	2.95	0	50	3	1.0269219	-26.895923	115	27	1.1	0.9	-538.5100	0.0000	0.0000	0.0000;
	3024	1	10.13	2.87	0	0	3	1.0257894	-31.076161	115	28	1.1	0.9	-229.7000	-19.6700	0.0000	0.0000;
	3025	1	13.67	3.87	0	0	3	0.9989445	-45.324839	115	28	1.1	0.9	-105.4600	77.8300	0.0000	0.0000;
	3026	1	0	0	0	0	3	1.0288856	-36.618323	230	27	1.1	0.9	-722.6500	73.6700	0.0000	0.0000;
	3027	1	0	0	0	0	3	1.019168	-37.219994	115	27	1.1	0.9	-740.5900	323.8500	0.0000	0.0000;
	3028	2	0	0	0	0	3	1.0400037	-34.034269	18	27	1.1	0.9	-726.0500	2398.8100	0.0000	0.0000;
	3029	1	4.87	1.38	0	0	3	1.0300528	-53.517743	115	28	1.1	0.9	47.7900	0.3600	0.0000	0.0000;
	3030	1	129.72	36.75	0	80	3	1.0178371	-39.89665	115	27	1.1	0.9	326.7200	-108.0200	0.0000	0.0000;
	3031	1	14.73	4.17	0	0	3	1.0005941	-26.115261	115	27	1.1	0.9	-579.0800	82.9500	0.0000	0.0000;
	3032	1	72.86	20.64	0	0	3	1.0022897	-26.98529	115	27	1.1	0.9	-959.5200	165.5000	0.0000	0.0000;
	3033	1	0	0	0	0	3	1.0089061	-14.969161	115	27	1.1	0.9	-809.5000	10.4900	0.0000	0.0000;
	3034	2	0	0	0	0	3	1.0300036	-5.702912	22	27	1.1	0.9	-806.7900	0.0000	0.0000	0.0000;
	3035	1	3.47	0.98	0	0	3	1.0021183	-44.438843	115	28	1.1	0.9	-96.9500	75.1700	0.0000	0.0000;
	3036	1	5.8	1.64	0	0	3	0.998823	-41.632464	115	28	1.1	0.9	-204.0100	116.1700	0.0000	0.0000;
	3037	1	0	0	0	0	3	1.0274371	-25.406821	230	27	1.1	0.9	4.6200	-6.5000	0.0000	0.0000;
	3038	1	0	0	0	0	3	1.0075834	-20.036372	115	27	1.1	0.9	-111.3100	-91.9200	0.0000	0.0000;
	3039	2	0	0	0	0	3	1.0400037	-22.829877	13.8	27	1.1	0.9	5.2200	-6.3600	0.0000	0.0000;
	3040	1	14.61	4.14	0	0	3	0.997184	-34.254583	115	27	1.1	0.9	51.9900	-29.6900	0.0000	0.0000;
	3041	1	0	0	0	0	3	1.019886	-29.135657	230	27	1.1	0.9	44.2900	-9.7400	0.0000	0.0000;
	3042	1	8.75	2.48	0	0	3	1.006916	-18.790587	115	27	1.1	0.9	-170.9300	-1.3900	0.0000	0.0000;
	3043	2	0	0	0	0	3	1.019886	-29.135657	13.8	27	1.1	0.9	44.2900	-9.7400	0.0000	0.0000;
	3044	2	0	0	0	0	3	1.019886	-29.135657	13.8	27	1.1	0.9	44.2900	-9.7400	0.0000	0.0000;
	3045	2	0	0	0	0	3	1.019886	-29.135657	13.8	27	1.1	0.9	44.2900	-9.7400	0.0000	0.0000;
	3046	1	0	0	0	200	3	1.016328	-34.54236	230	27	1.1	0.9	61.9700	-20.0900	0.0000	0.0000;
	3047	1	0	0	0	116.24	3	1.0300036	-20.522627	115	27	1.1	0.9	-397.2000	0.0000	0.0000	0.0000;
	3048	2	0	0	0	0	3	1.0213904	-41.391566	500	27	1.1	0.9	39.1800	-12.0100	0.0000	0.0000;
	3049	1	10.58	3	0	0	3	1.0065595	-29.893009	115	27	1.1	0.9	-555.4700	97.8800	0.0000	0.0000;
	3050	1	0	0	0	65	3	1.0239623	-33.926777	230	28	1.1	0.9	-89.2800	-10.8400	0.0000	0.0000;
	3051	1	145.29	41.17	0	20	3	1.0059952	-35.795965	115	28	1.1	0.9	-129.8800	-5.1000	0.0000	0.0000;
	3052	1	8.08	2.29	0	0	3	1.0062201	-58.530069	115	28	1.1	0.9	31.0700	2.5300	0.0000	0.0000;
	3053	1	0	0	0	0	3	1.0300228	-27.083304	230	27	1.1	0.9	142.0400	-25.7800	0.0000	0.0000;
	3054	1	0	0	0	0	3	1.0093892	-26.590852	115	27	1.1	0.9	-339.4300	-6.1800	0.0000	0.0000;
	3055	2	0	0	0	0	3	1.0400037	-24.199083	13.8	27	1.1	0.9	143.9200	0.0000	0.0000	0.0000;
	3056	2	0	0	0	0	3	1.0400037	-21.619502	13.8	27	1.1	0.9	144.5100	0.0000	0.0000	0.0000;
	3057	2	0	0	0	0	3	1.0400037	-21.784101	13.8	27	1.1	0.9	144.4600	0.0000	0.0000	0.0000;
	3058	1	0	0	0	0	3	1.0320922	-23.902769	230	27	1.1	0.9	48.2500	-9.4600	0.0000	0.0000;
	3059	1	0	0	0	0	3	1.0124383	-17.291643	115	27	1.1	0.9	-66.1800	-9.6500	0.0000	0.0000;
	3060	2	0	0	0	0	3	1.0400037	-16.336142	18	27	1.1	0.9	49.4800	0.0000	0.0000	0.0000;
	3061	2	0	0	0	0	3	1.0400037	-18.507171	18	27	1.1	0.9	49.1700	0.0000	0.0000	0.0000;
	3062	2	0	0	0	0	3	1.0400037	-21.186464	18	27	1.1	0.9	48.8500	0.0000	0.0000	0.0000;
	3063	2	0	0	0	0	3	1.0400037	-20.03345	18	27	1.1	0.9	48.9900	0.0000	0.0000	0.0000;
	3064	1	0	0	0	0	3	1.0215851	-18.440898	115	27	1.1	0.9	-441.4000	5.3900	0.0000	0.0000;
	3065	2	0	0	0	0	3	1.0003333	-12.344168	18	27	1.1	0.9	-437.6300	0.0000	0.0000	0.0000;
	3066	1	22.03	6.24	0	0	3	1.0078407	-42.671335	115	28	1.1	0.9	-85.4000	67.1100	0.0000	0.0000;
	3067	1	0	0	0	0	3	1.0281769	-19.73257	115	27	1.1	0.9	-782.5300	55.0000	0.0000	0.0000;
	3068	2	0	0	0	0	3	1.0400037	-16.839464	20	27	1.1	0.9	-785.4300	0.0000	0.0000	0.0000;
	3069	1	3.81	1.08	0	0	3	0.9997036	-29.444608	115	27	1.1	0.9	-685.8600	165.6600	0.0000	0.0000;
	3070	1	0	0	0	0	3	1.0198813	-21.025657	115	27	1.1	0.9	-799.4800	89.3700	0.0000	0.0000;
	3071	2	0	0	0	0	3	1.0054475	-16.450545	24	27	1.1	0.9	-805.8400	691.4200	0.0000	0.0000;
	3072	1	5.98	1.7	0	0	3	1.011792	-38.528257	115	27	1.1	0.9	181.7400	-57.1200	0.0000	0.0000;
	3073	1	0	0	0	0	3	1.0040665	-54.220886	115	28	1.1	0.9	12.6200	0.6400	0.0000	0.0000;
	3074	2	0	0	0	0	3	1.000003	-51.701704	13.8	28	1.1	0.9	12.5700	0.0000	0.0000	0.0000;
	3075	1	12.18	3.45	0	0	3	1.0030425	-40.097706	115	28	1.1	0.9	-178.5200	76.9200	0.0000	0.0000;
	3076	1	10.79	3.06	0	0	3	1.0012835	-55.675889	115	28	1.1	0.9	15.6100	1.1400	0.0000	0.0000;
	3077	1	68.66	19.45	0	0	3	1.0031436	-27.925895	115	27	1.1	0.9	-880.5000	169.7900	0.0000	0.0000;
	3078	1	0	0	0	0	3	1.022309	-25.744695	230	27	1.1	0.9	4.7500	-4.1300	0.0000	0.0000;
	3079	1	0	0	0	0	3	1.0185289	-23.972232	161	27	1.1	0.9	-85.4000	-5.4900	0.0000	0.0000;
	3080	1	0	0	0	0	3	1.0083586	-21.099777	115	27	1.1	0.9	-104.3300	-69.5800	0.0000	0.0000;
	3081	2	0	0	0	0	3	1.0400037	-19.665476	20	27	1.1	0.9	5.3500	0.0000	0.0000	0.0000;
	3082	1	0	0	0	0	3	1.0209748	-27.929473	230	27	1.1	0.9	287.3000	-82.0500	0.0000	0.0000;
	3083	1	0	0	0	0	3	1.0143155	-24.125986	115	27	1.1	0.9	-1601.1300	252.4600	0.0000	0.0000;
	3084	2	0	0	0	0	3	1.0000036	-18.089098	13.8	27	1.1	0.9	301.2900	0.0000	0.0000	0.0000;
	3085	1	0	0	0	0	3	1.0070584	-18.37142	115	27	1.1	0.9	-134.6000	-121.2200	0.0000	0.0000;
	3086	2	0	0	0	0	3	1.0000036	-11.441498	13.2	27	1.1	0.9	-114.7300	0.0000	0.0000	0.0000;
	3087	2	0	0	0	0	3	1.0070584	-18.37142	13.2	27	1.1	0.9	-134.6000	-121.2200	0.0000	0.0000;
	3088	1	0	0	0	126.23	3	1.0300036	-33.117967	230	27	1.1	0.9	73.3900	0.0000	0.0000	0.0000;
	3089	1	0	0	0	0	3	1.0268531	-35.746317	161	27	1.1	0.9	58.8600	-3.3500	0.0000	0.0000;
	3090	1	0	0	0	0	3	1.0238383	-36.395897	161	27	1.1	0.9	48.7100	-3.2100	0.0000	0.0000;
	3091	1	0	0	0	65.8	3	1.0200036	-37.278793	115	27	1.1	0.9	35.0700	0.0000	0.0000	0.0000;
	3092	2	0	0	0	0	3	1.0400037	-26.329556	13.8	27	1.1	0.9	73.1100	0.0000	0.0000	0.0000;
	3093	1	5.05	1.43	0	0	3	1.0040589	-57.888866	115	28	1.1	0.9	24.5700	2.0700	0.0000	0.0000;
	3094	1	0	0	0	0	3	1.0161091	-23.162404	115	27	1.1	0.9	-1040.0500	120.6800	0.0000	0.0000;