function mpc = case2737sop
%CASE2737SOP    Power flow data for Polish system - summer 2004 off-peak.
%   Please see CASEFORMAT for details on the case file format.
%
%   This case represents the Polish 400, 220 and 110 kV networks during
%   summer 2004 off-peak conditions. Multiple centrally dispatchable
%   generators at a bus have not been aggregated. Generators that are
%   not centrally dispatchable in the Polish energy market are given a
%   cost of zero.
%
%   This data was graciously provided by, and is distributed with the
%   permission of, Roman Korab <roman.korab@polsl.pl>.
%
%   MODIFIED 2018-10-16 (RDZ): Corrected sign of phase shifter angles
%           in this case to reflect correction of phase shifter sign
%           convention in MATPOWER code made on 2007-06-21 and included
%           in MATPOWER v3.2. Original version of this case was based
%           on the old sign convention. (Thanks to Mikhail Khokhlov and
%           Dr. Artjoms Obusevs for reporting.)

%   MATPOWER

%% MATPOWER Case Format : Version 2
mpc.version = '2';

%%-----  Power Flow Data  -----%%
%% system MVA base
mpc.baseMVA = 100;

%% bus data
%	bus_i	type	Pd	Qd	Gs	Bs	area	Vm	Va	baseKV	zone	Vmax	Vmin	lam_P	lam_Q	mu_Vmax	mu_Vmin
mpc.bus = [
	1	1	0	0	0	0	1	1.0988371	3.1731556	220	1	1.11	0.95	89.4822	0.1770	0.0000	0.0000;
	2	1	0	0	0	0	1	1.1062317	2.1002592	220	1	1.11	0.95	89.8246	-0.0341	0.0000	0.0000;
	3	1	0	0	0	0	1	1.0814038	-12.414419	220	1	1.11	0.95	96.4024	-0.3433	0.0000	0.0000;
	4	1	0	0	0	0	1	1.0978935	-0.2625655	220	1	1.11	0.95	90.7381	0.0166	0.0000	0.0000;
	5	1	0	0	0	0	1	1.0979028	-0.25899449	220	1	1.11	0.95	90.7382	0.0171	0.0000	0.0000;
	6	1	0	0	0	0	1	1.0784645	-6.7111231	220	1	1.11	0.95	93.2099	-0.4768	0.0000	0.0000;
	7	1	0	0	0	0	1	1.0785472	-6.7055016	220	1	1.11	0.95	93.2067	-0.4782	0.0000	0.0000;
	8	1	0	0	0	-50	1	1.0422298	-5.3046136	400	1	1.05	0.95	92.8049	-0.7547	0.0000	0.0000;
	9	1	0	0	0	0	1	1.0422619	-5.3031789	400	1	1.05	0.95	92.8043	-0.7555	0.0000	0.0000;
	10	1	0	0	0	0	1	1.0715408	-6.753116	220	1	1.11	0.95	93.4502	-0.3129	0.0000	0.0000;
	11	1	0	0	0	0	1	1.0715132	-6.7557551	220	1	1.11	0.95	93.4515	-0.3114	0.0000	0.0000;
	12	1	0	0	0	0	1	1.0715104	-6.7512467	220	1	1.11	0.95	93.4509	-0.3098	0.0000	0.0000;
	13	1	0	0	0	0	1	1.07149	-6.755826	220	1	1.11	0.95	93.4514	-0.3099	0.0000	0.0000;
	14	1	0	0	0	-50	1	1.0362421	-4.249135	400	1	1.05	0.95	92.4628	-0.4494	0.0000	0.0000;
	15	1	0	0	0	0	1	1.05	-6.6753466	400	1	1.05	0.95	93.0327	-1.5740	0.0000	0.0000;
	16	1	0	0	0	0	1	1.05	-6.6753466	400	1	1.05	0.95	93.0325	-1.5754	2354.0866	0.0000;
	17	1	0	0	0	0	1	1.075175	-10.326271	220	1	1.11	0.95	95.1052	-0.0880	0.0000	0.0000;
	18	1	0	0	0	0	1	1.0751192	-10.32649	220	1	1.11	0.95	95.1042	-0.0861	0.0000	0.0000;
	19	1	0	0	0	0	1	1.1006118	0.29052844	220	1	1.11	0.95	90.4586	0.0218	0.0000	0.0000;
	20	1	0	0	0	0	1	1.1006331	0.28503371	220	1	1.11	0.95	90.4595	0.0218	0.0000	0.0000;
	21	1	0	0	0	0	1	1.0821751	-7.00751	220	1	1.11	0.95	93.3511	-0.1824	0.0000	0.0000;
	22	1	0	0	0	0	1	1.0821751	-7.00751	220	1	1.11	0.95	93.3511	-0.1824	0.0000	0.0000;
	23	1	0	0	0	0	1	1.0689354	-6.8094961	220	1	1.11	0.95	93.4699	-0.3584	0.0000	0.0000;
	24	1	0	0	0	0	1	1.1024425	0.68972441	220	1	1.11	0.95	90.3797	-0.0309	0.0000	0.0000;
	25	1	0	0	0	-50	1	1.0389197	-6.6165523	400	1	1.05	0.95	93.6600	-0.1245	0.0000	0.0000;
	26	2	48.178	65.087	0	0	1	1.1082562	3.5097454	220	1	1.11	0.95	89.3018	0.0000	0.0000	0.0000;
	27	2	28.145	35.087	0	0	1	1.1074115	2.0773566	220	1	1.11	0.95	89.8497	-0.0653	0.0000	0.0000;
	28	3	0	0	0	0	1	1.0449384	1.77808	400	1	1.05	0.95	90.2156	-0.0851	0.0000	0.0000;
	29	2	44.698	72	0	0	1	1.0449301	1.7863243	400	1	1.05	0.95	90.2126	-0.0850	0.0000	0.0000;
	30	1	0	0	0	0	1	1.0766538	-7.0072863	220	1	1.11	0.95	93.5523	-0.2272	0.0000	0.0000;
	31	1	0	0	0	0	1	1.0464577	0.79967202	400	1	1.05	0.95	90.3745	-0.1567	0.0000	0.0000;
	32	1	0	0	0	0	1	1.0693388	-6.9043214	220	1	1.11	0.95	93.5297	-0.2720	0.0000	0.0000;
	33	1	0	0	0	0	1	1.09915	-1.7078575	220	1	1.11	0.95	91.1525	0.0342	0.0000	0.0000;
	34	1	0	0	0	0	1	1.11	-3.5435543	220	2	1.11	0.95	90.8522	-4.4397	11730.0166	0.0000;
	35	1	0	0	0	0	1	1.0805053	-4.3551196	220	2	1.11	0.95	92.2726	-1.4203	0.0000	0.0000;
	36	1	0	0	0	0	1	1.0969905	-3.9054531	220	2	1.11	0.95	91.8665	-1.7375	0.0000	0.0000;
	37	1	0	0	0	0	1	1.0969464	-3.9069642	220	2	1.11	0.95	91.8676	-1.7350	0.0000	0.0000;
	38	1	0	0	0	0	1	1.1002849	-3.7899499	220	2	1.11	0.95	91.1584	-3.1562	0.0000	0.0000;
	39	1	0	0	0	0	1	1.1070837	-3.9625528	220	2	1.11	0.95	92.1847	-1.1120	0.0000	0.0000;
	40	1	0	0	0	0	1	1.1070251	-3.9655272	220	2	1.11	0.95	92.1859	-1.1109	0.0000	0.0000;
	41	1	0	0	0	0	1	1.0389057	-3.8675125	400	2	1.05	0.95	92.1440	-1.0852	0.0000	0.0000;
	42	2	13	0	0	0	1	1.0843581	-3.6251574	220	2	1.11	0.95	91.7425	-1.1989	0.0000	0.0000;
	43	2	13	0	0	0	1	1.0843882	-3.6162162	220	2	1.11	0.95	91.7398	-1.2022	0.0000	0.0000;
	44	2	25	0	0	0	1	1.0495182	-3.7143296	400	2	1.05	0.95	91.9966	-1.1649	0.0000	0.0000;
	45	1	0	0	0	0	1	1.0495379	-3.7138534	400	2	1.05	0.95	91.9947	-1.1665	0.0000	0.0000;
	46	1	0	0	0	0	1	1.1065925	-4.2521065	220	2	1.11	0.95	92.3785	-1.1117	0.0000	0.0000;
	47	1	0	0	0	0	1	1.0387693	-6.4543224	400	2	1.05	0.95	92.8916	-0.8887	0.0000	0.0000;
	48	1	0	0	0	0	1	1.0387728	-6.4585039	400	2	1.05	0.95	92.8935	-0.8885	0.0000	0.0000;
	49	1	0	0	0	0	1	1.0466528	-3.6073314	400	2	1.05	0.95	91.7028	-1.5086	0.0000	0.0000;
	50	1	0	0	0	0	1	1.1003654	-3.2193348	220	2	1.11	0.95	90.7898	-3.2463	0.0000	0.0000;
	51	1	0	0	0	0	1	1.1003403	-3.2167735	220	2	1.11	0.95	90.7899	-3.2444	0.0000	0.0000;
	52	1	0	0	0	0	1	1.0477994	-4.1910932	400	2	1.05	0.95	92.1922	-1.1842	0.0000	0.0000;
	53	1	0	0	0	0	1	1.0477959	-4.1902534	400	2	1.05	0.95	92.1922	-1.1841	0.0000	0.0000;
	54	1	0	0	0	0	1	1.0977199	-3.6115281	220	2	1.11	0.95	91.8352	-1.3695	0.0000	0.0000;
	55	2	13	0	0	0	1	1.0976897	-3.6048105	220	2	1.11	0.95	91.8311	-1.3710	0.0000	0.0000;
	56	2	13	0	0	0	1	1.045932	-3.7636954	400	2	1.05	0.95	92.0676	-1.1044	0.0000	0.0000;
	57	2	13	0	0	0	1	1.0459153	-3.7671604	400	2	1.05	0.95	92.0690	-1.1042	0.0000	0.0000;
	58	2	67.882	25.273	0	0	1	1.0901945	-3.8334578	220	2	1.11	0.95	91.6559	-1.9664	0.0000	0.0000;
	59	1	0	0	0	0	1	1.0902606	-3.8309695	220	2	1.11	0.95	91.6539	-1.9726	0.0000	0.0000;
	60	1	0	0	0	0	1	1.1032085	-4.3318607	220	2	1.11	0.95	92.3656	-1.1302	0.0000	0.0000;
	61	1	0	0	0	0	1	1.0898541	-4.0841342	220	2	1.11	0.95	92.0242	-1.3236	0.0000	0.0000;
	62	1	0	0	0	0	1	1.0898184	-4.0840559	220	2	1.11	0.95	92.0235	-1.3255	0.0000	0.0000;
	63	1	0	0	0	0	1	1.0375043	-4.6163516	400	2	1.05	0.95	92.3231	-0.9194	0.0000	0.0000;
	64	1	0	0	0	0	1	1.037527	-4.6243476	400	2	1.05	0.95	92.3259	-0.9197	0.0000	0.0000;
	65	1	0	224.802	0	0	1	1.0496172	-4.5991852	750	2	1.05	0.9	92.3232	-0.9027	0.0000	0.0000;
	66	1	0	0	0	0	1	1.1011486	-4.1127983	220	2	1.11	0.95	91.7378	-2.5436	0.0000	0.0000;
	67	1	0	0	0	0	1	1.101794	-4.0223494	220	2	1.11	0.95	91.6777	-2.5875	0.0000	0.0000;
	68	1	0	0	0	0	1	1.0969502	-2.7101621	220	2	1.11	0.95	90.6058	-3.0297	0.0000	0.0000;
	69	1	0	0	0	0	1	1.0999402	-1.5148341	220	3	1.11	0.95	91.1768	-0.2209	0.0000	0.0000;
	70	1	0	0	0	0	1	1.1007297	-4.4938609	220	3	1.11	0.95	92.2721	-0.9226	0.0000	0.0000;
	71	1	0	0	0	0	1	1.1007249	-4.4925157	220	3	1.11	0.95	92.2715	-0.9237	0.0000	0.0000;
	72	1	0	0	0	0	1	1.0862997	-4.3937257	220	3	1.11	0.95	92.3851	0.0114	0.0000	0.0000;
	73	1	0	0	0	0	1	1.086311	-4.3818206	220	3	1.11	0.95	92.3817	0.0111	0.0000	0.0000;
	74	1	0	0	0	0	1	1.0950289	-3.3714802	220	3	1.11	0.95	91.7651	-0.0664	0.0000	0.0000;
	75	1	0	0	0	0	1	1.0950083	-3.3728031	220	3	1.11	0.95	91.7660	-0.0664	0.0000	0.0000;
	76	1	0	0	0	0	1	1.0811849	-8.0356642	220	3	1.11	0.95	94.1814	0.0102	0.0000	0.0000;
	77	1	0	0	0	0	1	1.0811784	-8.0389669	220	3	1.11	0.95	94.1832	0.0103	0.0000	0.0000;
	78	2	27	70	0	0	1	1.0878054	-3.5711162	220	3	1.11	0.95	92.0186	0.0000	0.0000	0.0000;
	79	2	9	21	0	0	1	1.0882992	-4.1560165	220	3	1.11	0.95	92.3156	-0.0433	0.0000	0.0000;
	80	1	4.602	0.91	0	0	1	1.0872711	-4.2559736	220	3	1.11	0.95	92.4187	0.0157	0.0000	0.0000;
	81	1	0	0	0	0	1	1.0872656	-4.2561554	220	3	1.11	0.95	92.4191	0.0155	0.0000	0.0000;
	82	2	18	57	0	0	1	1.038756	-0.65564817	400	3	1.05	0.95	90.7825	-0.1757	0.0000	0.0000;
	83	1	0	0	0	0	1	1.1078773	-2.5120288	220	3	1.11	0.95	91.1798	-0.3557	0.0000	0.0000;
	84	1	0	0	0	0	1	1.0915351	-4.0744547	220	3	1.11	0.95	92.1077	-0.0084	0.0000	0.0000;
	85	1	0	0	0	0	1	1.0914976	-4.0757816	220	3	1.11	0.95	92.1087	-0.0085	0.0000	0.0000;
	86	1	32.969	-8.4	0	0	1	1.1005785	-1.6592085	220	3	1.11	0.95	91.2109	-0.2332	0.0000	0.0000;
	87	1	0	0	0	0	1	1.1005774	-1.6637056	220	3	1.11	0.95	91.2124	-0.2332	0.0000	0.0000;
	88	1	0	0	0	0	1	1.0865034	-3.6181237	220	3	1.11	0.95	91.9702	0.0584	0.0000	0.0000;
	89	1	0	0	0	0	1	1.0864764	-3.6185168	220	3	1.11	0.95	91.9702	0.0584	0.0000	0.0000;
	90	1	0	0	0	0	1	1.100397	-1.2887863	220	3	1.11	0.95	91.0457	-0.2127	0.0000	0.0000;
	91	1	0	0	0	0	1	1.1004123	-1.2922528	220	3	1.11	0.95	91.0462	-0.2136	0.0000	0.0000;
	92	1	0	0	0	0	1	1.0485753	0.0470111	400	3	1.05	0.95	90.7875	-0.2047	0.0000	0.0000;
	93	1	0	0	0	0	1	1.0485662	0.04600424	400	3	1.05	0.95	90.7877	-0.2046	0.0000	0.0000;
	94	1	0	0	0	0	1	1.089866	-3.7168499	220	3	1.11	0.95	91.9405	0.0092	0.0000	0.0000;
	95	1	0	0	0	0	1	1.0898885	-3.7217981	220	3	1.11	0.95	91.9419	0.0092	0.0000	0.0000;
	96	1	0	0	0	0	1	1.1006195	-2.9440143	220	3	1.11	0.95	91.4340	-0.1495	0.0000	0.0000;
	97	1	0	0	0	0	1	1.1006611	-2.9418413	220	3	1.11	0.95	91.4330	-0.1504	0.0000	0.0000;
	98	2	9.938	2.19	0	0	1	1.0911223	-3.8143676	220	3	1.11	0.95	92.1552	-0.1393	0.0000	0.0000;
	99	1	16.652	3.293	0	0	1	1.0911428	-3.8119524	220	3	1.11	0.95	92.1544	-0.1400	0.0000	0.0000;
	100	1	0	0	0	0	1	1.1007054	-4.4923524	220	3	1.11	0.95	92.2715	-0.9232	0.0000	0.0000;
	101	1	0	0	0	0	1	1.1007103	-4.493698	220	3	1.11	0.95	92.2721	-0.9221	0.0000	0.0000;
	102	1	0	0	0	0	1	1.0818145	-7.4626411	220	3	1.11	0.95	93.9537	0.0324	0.0000	0.0000;
	103	1	0	0	0	0	1	1.0818182	-7.4522797	220	3	1.11	0.95	93.9502	0.0325	0.0000	0.0000;
	104	2	14	40	0	0	1	1.0923127	-4.0814397	220	3	1.11	0.95	92.1322	0.0000	0.0000	0.0000;
	105	1	0	0	0	0	1	1.0922038	-4.1003381	220	3	1.11	0.95	92.1397	0.0016	0.0000	0.0000;
	106	2	7	18	0	0	1	1.0901045	-3.3210431	220	3	1.11	0.95	91.7962	0.0000	0.0000	0.0000;
	107	1	0	0	0	0	1	1.0900602	-3.3207564	220	3	1.11	0.95	91.7964	-0.0002	0.0000	0.0000;
	108	1	27.63	5.872	0	0	1	1.0943977	-3.3498601	220	3	1.11	0.95	91.9503	-0.2359	0.0000	0.0000;
	109	1	17.522	3.337	0	0	1	1.0944125	-3.3570878	220	3	1.11	0.95	91.9525	-0.2371	0.0000	0.0000;
	110	1	0	0	0	0	1	1.0856816	-4.6384324	220	3	1.11	0.95	92.6581	-0.1116	0.0000	0.0000;
	111	1	0	0	0	0	1	1.0876704	-4.1208111	220	3	1.11	0.95	92.2667	0.0927	0.0000	0.0000;
	112	1	0	0	0	0	1	1.0876767	-4.12152	220	3	1.11	0.95	92.2672	0.0922	0.0000	0.0000;
	113	1	0	0	0	0	1	1.0866617	-4.2664831	220	3	1.11	0.95	92.4521	0.0044	0.0000	0.0000;
	114	1	0	0	0	0	1	1.0866683	-4.2613941	220	3	1.11	0.95	92.4500	0.0042	0.0000	0.0000;
	115	1	0	0	0	0	1	1.0366664	-2.111324	400	3	1.05	0.95	91.4080	-0.2491	0.0000	0.0000;
	116	1	0	0	0	0	1	1.089168	-3.8412547	220	3	1.11	0.95	92.1785	-0.0890	0.0000	0.0000;
	117	2	8	15	0	0	1	1.0891509	-3.8318891	220	3	1.11	0.95	92.1757	-0.0883	0.0000	0.0000;
	118	1	0	0	0	0	1	1.0883397	-4.4254886	220	3	1.11	0.95	92.4705	-0.1887	0.0000	0.0000;
	119	1	0	0	0	0	1	1.0883542	-4.4242539	220	3	1.11	0.95	92.4696	-0.1896	0.0000	0.0000;
	120	1	0	0	0	0	1	1.0470801	-3.9626713	400	3	1.05	0.95	92.1277	-0.9603	0.0000	0.0000;
	121	1	0	0	0	0	1	1.0471181	-3.9587483	400	3	1.05	0.95	92.1260	-0.9605	0.0000	0.0000;
	122	1	0	0	0	0	1	1.043056	-1.9199464	400	3	1.05	0.95	91.3301	-0.3804	0.0000	0.0000;
	123	1	0	0	0	0	1	1.0431047	-1.9169615	400	3	1.05	0.95	91.3292	-0.3813	0.0000	0.0000;
	124	1	0	0	0	0	1	1.0851196	-4.710497	220	3	1.11	0.95	92.7212	-0.1134	0.0000	0.0000;
	125	1	2.929	0.867	0	0	1	1.0979375	-3.1116592	220	3	1.11	0.95	91.5511	-0.0543	0.0000	0.0000;
	126	2	19.898	27.707	0	0	1	1.0977572	-3.1061652	220	3	1.11	0.95	91.5514	-0.0514	0.0000	0.0000;
	127	2	12.2	25.8	0	0	1	1.03145	-1.7713769	400	3	1.05	0.95	91.2979	-0.1135	0.0000	0.0000;
	128	1	0	0	0	0	1	1.0313793	-1.7757389	400	3	1.05	0.95	91.2999	-0.1129	0.0000	0.0000;
	129	1	0	0	0	0	1	1.1004705	-1.753404	220	3	1.11	0.95	91.2543	-0.2341	0.0000	0.0000;
	130	1	0	0	0	0	1	1.1004246	-1.7541935	220	3	1.11	0.95	91.2542	-0.2333	0.0000	0.0000;
	131	1	0	0	0	0	1	1.0997933	-1.6360908	220	3	1.11	0.95	91.2028	-0.2119	0.0000	0.0000;
	132	2	137	9	0	0	1	1.080568	-8.4583986	220	3	1.11	0.95	94.3690	0.0000	0.0000	0.0000;
	133	2	137	6	0	0	1	1.080567	-8.4631219	220	3	1.11	0.95	94.3708	0.0000	0.0000	0.0000;
	134	1	0.515	1.973	0	0	1	1.1010272	-2.5005347	220	4	1.11	0.95	91.3665	0.0003	0.0000	0.0000;
	135	2	15.242	14.277	0	0	1	1.1010531	-2.4977759	220	4	1.11	0.95	91.3654	-0.0000	0.0000	0.0000;
	136	1	0	0	0	0	1	1.1090223	-2.907547	220	4	1.11	0.95	90.9609	-0.3853	0.0000	0.0000;
	137	1	0	0	0	0	1	1.1084034	-2.2905373	220	4	1.11	0.95	90.6905	-0.2757	0.0000	0.0000;
	138	1	0	0	0	0	1	1.0335809	-2.2051876	400	4	1.05	0.95	91.1851	-0.2239	0.0000	0.0000;
	139	1	0	0	0	0	1	1.0336006	-2.2078	400	4	1.05	0.95	91.1863	-0.2241	0.0000	0.0000;
	140	1	0	0	0	0	1	1.101858	-7.2447288	220	4	1.11	0.95	93.9426	-0.2038	0.0000	0.0000;
	141	1	0	0	0	0	1	1.0937023	-6.1672989	220	4	1.11	0.95	94.2776	0.0247	0.0000	0.0000;
	142	1	0	0	0	0	1	1.0937023	-6.1672989	220	4	1.11	0.95	94.2776	0.0247	0.0000	0.0000;
	143	1	0	0	0	0	1	1.102517	-6.0408918	220	4	1.11	0.95	93.6117	-0.4728	0.0000	0.0000;
	144	1	0	0	0	0	1	1.1064125	-3.4132987	220	4	1.11	0.95	91.1515	-0.2253	0.0000	0.0000;
	145	1	0	0	0	0	1	1.1064125	-3.4132987	220	4	1.11	0.95	91.1515	-0.2253	0.0000	0.0000;
	146	1	7.636	13.257	0	0	1	1.0990818	-4.310413	220	4	1.11	0.95	92.0820	0.0139	0.0000	0.0000;
	147	1	0	0	0	0	1	1.0991439	-4.3087158	220	4	1.11	0.95	92.0799	0.0134	0.0000	0.0000;
	148	2	10.87	14.867	0	0	1	1.0964007	-5.3203788	220	4	1.11	0.95	93.8293	-0.0074	0.0000	0.0000;
	149	1	0	0	0	0	1	1.0964815	-5.3319086	220	4	1.11	0.95	93.8358	-0.0086	0.0000	0.0000;
	150	2	10.989	15	0	0	1	1.0336749	-8.0337652	400	4	1.05	0.95	94.4951	-0.0000	0.0000	0.0000;
	151	2	20.672	21.479	0	0	1	1.0336702	-8.0315014	400	4	1.05	0.95	94.4943	-0.0004	0.0000	0.0000;
	152	1	0	0	0	0	1	1.098391	-6.7794234	220	4	1.11	0.95	93.9336	-0.2218	0.0000	0.0000;
	153	1	0	0	0	0	1	1.1077538	-4.3612447	220	4	1.11	0.95	92.2945	-0.9851	0.0000	0.0000;
	154	1	0	0	0	0	1	1.1077553	-4.3636195	220	4	1.11	0.95	92.2953	-0.9815	0.0000	0.0000;
	155	2	0	0	0	0	1	1.1054692	-0.91838753	220	4	1.11	0.95	90.1696	-0.0449	0.0000	0.0000;
	156	2	13.87	33	0	0	1	1.1054826	-0.91263647	220	4	1.11	0.95	90.1689	-0.0454	0.0000	0.0000;
	157	1	0	0	0	0	1	1.0208966	-0.02424863	400	4	1.05	0.95	90.2541	-0.0039	0.0000	0.0000;
	158	2	9.989	25	0	0	1	1.0208614	-0.01970188	400	4	1.05	0.95	90.2525	-0.0033	0.0000	0.0000;
	159	1	0	0	0	0	1	1.0982403	-6.1687192	220	4	1.11	0.95	94.2231	-0.0428	0.0000	0.0000;
	160	1	0	0	0	0	1	1.0982403	-6.1687192	220	4	1.11	0.95	94.2231	-0.0428	0.0000	0.0000;
	161	1	0	0	0	0	1	1.0381031	-2.850795	400	4	1.05	0.95	91.4175	-0.2802	0.0000	0.0000;
	162	1	0	0	0	0	1	1.0380799	-2.3257801	400	4	1.05	0.95	91.2251	-0.2678	0.0000	0.0000;
	163	1	0	0	0	0	1	1.0380786	-2.3254376	400	4	1.05	0.95	91.2250	-0.2678	0.0000	0.0000;
	164	2	11.664	11	0	0	1	1.1005618	-4.4219209	220	4	1.11	0.95	92.1080	-0.0000	0.0000	0.0000;
	165	2	11.564	10.667	0	0	1	1.1005897	-4.4365739	220	4	1.11	0.95	92.1152	-0.0002	0.0000	0.0000;
	166	1	0	0	0	0	1	1.1005897	-4.4365739	220	4	1.11	0.95	92.1152	-0.0002	0.0000	0.0000;
	167	1	0	0	0	0	1	1.1078578	-11.188191	220	4	1.11	0.95	96.2459	-0.3679	0.0000	0.0000;
	168	1	0	0	0	0	1	1.0930144	-6.2258786	220	4	1.11	0.95	94.3017	0.0429	0.0000	0.0000;
	169	1	0	0	0	0	1	1.1079187	-7.7992584	220	4	1.11	0.95	94.3401	-0.3672	0.0000	0.0000;
	170	1	0	0	0	0	1	1.10792	-7.8048332	220	4	1.11	0.95	94.3422	-0.3673	0.0000	0.0000;
	171	1	0	0	0	0	1	1.0273607	-8.0768261	400	4	1.05	0.95	94.4134	-0.2652	0.0000	0.0000;
	172	1	0	0	0	0	1	1.0273607	-8.0768261	400	4	1.05	0.95	94.4134	-0.2652	0.0000	0.0000;
	173	1	0	0	0	0	1	1.0972304	-4.9313669	220	4	1.11	0.95	92.7843	-0.1592	0.0000	0.0000;
	174	1	0	0	0	0	1	1.0972427	-4.9292116	220	4	1.11	0.95	92.7836	-0.1585	0.0000	0.0000;
	175	1	0	0	0	0	1	1.0936299	-6.2290183	220	4	1.11	0.95	92.8329	-0.0759	0.0000	0.0000;
	176	1	0	0	0	0	1	1.1086642	-2.8518944	220	4	1.11	0.95	90.9932	-0.3999	0.0000	0.0000;
	177	1	0	0	0	0	1	1.1086718	-2.8506968	220	4	1.11	0.95	90.9935	-0.4011	0.0000	0.0000;
	178	1	0	0	0	0	1	1.11	-3.0395622	220	4	1.11	0.95	91.1245	-0.7002	1510.5743	0.0000;
	179	1	0	0	0	0	1	1.11	-3.0395622	220	4	1.11	0.95	91.1245	-0.7002	0.0000	0.0000;
	180	2	3.13	1.5	0	0	1	1.11	-3.4532746	220	4	1.11	0.95	91.8736	-1.4635	3217.2702	0.0000;
	181	1	0	0	0	0	1	1.0976593	-5.2093053	220	4	1.11	0.95	92.8581	-0.3246	0.0000	0.0000;
	182	1	0	0	0	0	1	1.0906174	-11.550683	220	5	1.11	0.95	95.7641	0.0476	0.0000	0.0000;
	183	1	0	0	0	0	1	1.10155	-14.207909	220	5	1.11	0.95	96.9396	-0.0429	0.0000	0.0000;
	184	1	0	0	0	0	1	1.0352196	-13.758822	400	5	1.05	0.95	96.7166	0.0058	0.0000	0.0000;
	185	1	0	0	0	0	1	1.0352336	-13.750658	400	5	1.05	0.95	96.7128	0.0058	0.0000	0.0000;
	186	1	0	0	0	0	1	1.035852	-16.309541	400	5	1.05	0.95	97.9087	-0.0415	0.0000	0.0000;
	187	1	0	0	0	0	1	1.0358756	-16.315051	400	5	1.05	0.95	97.9110	-0.0420	0.0000	0.0000;
	188	1	0	0	0	0	1	1.1013411	-15.79941	220	5	1.11	0.95	98.0998	-0.0701	0.0000	0.0000;
	189	1	0	0	0	0	1	1.1013634	-15.799937	220	5	1.11	0.95	98.1000	-0.0706	0.0000	0.0000;
	190	1	0	0	0	0	1	1.0967955	-13.647542	220	5	1.11	0.95	96.6631	-0.0479	0.0000	0.0000;
	191	1	0	0	0	0	1	1.0967841	-13.641326	220	5	1.11	0.95	96.6619	-0.0478	0.0000	0.0000;
	192	1	0	0	0	0	1	1.0251116	-11.536722	400	5	1.05	0.95	96.1553	0.0868	0.0000	0.0000;
	193	1	0	0	0	0	1	1.0911228	-11.119661	220	5	1.11	0.95	95.6728	0.0611	0.0000	0.0000;
	194	1	0	0	0	0	1	1.091116	-11.118625	220	5	1.11	0.95	95.6729	0.0610	0.0000	0.0000;
	195	1	0	0	0	0	1	1.0431001	-16.235603	400	5	1.05	0.95	98.0356	-0.1232	0.0000	0.0000;
	196	1	0	0	0	0	1	1.043097	-16.2353	400	5	1.05	0.95	98.0359	-0.1231	0.0000	0.0000;
	197	1	0	0	0	0	1	1.0714251	-13.77591	220	5	1.11	0.95	97.5431	-0.0369	0.0000	0.0000;
	198	1	0	0	0	0	1	1.0714109	-13.77467	220	5	1.11	0.95	97.5417	-0.0368	0.0000	0.0000;
	199	1	0	0	0	-117	1	1.0269754	-15.550639	400	5	1.05	0.95	97.4200	0.1085	0.0000	0.0000;
	200	1	0	0	0	0	1	1.0270217	-15.543467	400	5	1.05	0.95	97.4168	0.1079	0.0000	0.0000;
	201	1	0	0	0	0	1	1.0846615	-12.497814	220	5	1.11	0.95	96.6269	0.0765	0.0000	0.0000;
	202	1	0	0	0	0	1	1.0846264	-12.49079	220	5	1.11	0.95	96.6257	0.0767	0.0000	0.0000;
	203	1	0	0	0	0	1	1.0779801	-10.282582	220	5	1.11	0.95	95.7763	0.1786	0.0000	0.0000;
	204	1	0	0	0	0	1	1.0779684	-10.293333	220	5	1.11	0.95	95.7803	0.1786	0.0000	0.0000;
	205	2	400	60	0	0	1	1.0319479	-17.366475	400	5	1.05	0.95	98.1753	-0.0000	0.0000	0.0000;
	206	1	0	0	0	0	1	1.0319774	-17.36237	400	5	1.05	0.95	98.1740	-0.0004	0.0000	0.0000;
	207	1	0	0	0	0	1	1.1045955	-14.772601	220	5	1.11	0.95	97.4145	-0.2154	0.0000	0.0000;
	208	1	0	0	0	0	1	1.1045931	-14.775974	220	5	1.11	0.95	97.4142	-0.2148	0.0000	0.0000;
	209	1	8.114	2	0	0	1	1.0634391	-9.1432073	110	1	1.12	0.95	95.2602	-0.7115	0.0000	0.0000;
	210	1	2.705	0.5	0	0	1	1.0595242	-14.761156	110	1	1.12	0.95	98.3805	-0.5282	0.0000	0.0000;
	211	1	2.705	2	0	0	1	1.0680045	-8.4334738	110	1	1.12	0.95	93.3974	-0.2476	0.0000	0.0000;
	212	1	4.688	4.6	0	0	1	1.0442043	-9.9780513	110	1	1.12	0.95	96.0087	0.4706	0.0000	0.0000;
	213	1	1.623	0.4	0	0	1	1.0563609	1.4988114	110	1	1.12	0.95	90.1198	0.0072	0.0000	0.0000;
	214	1	1.172	0.3	0	0	1	1.0580792	0.73906982	110	1	1.12	0.95	89.9175	0.3503	0.0000	0.0000;
	215	2	6	8.8	0	0	1	1.0804096	-9.1245518	110	1	1.12	0.95	93.5881	-0.9775	0.0000	0.0000;
	216	1	4.959	0.5	0	0	1	1.0822197	-9.0279383	110	1	1.12	0.95	93.4725	-1.0851	0.0000	0.0000;
	217	1	4.057	1	0	0	1	1.0816652	-9.0627133	110	1	1.12	0.95	93.5110	-1.0565	0.0000	0.0000;
	218	1	6.762	1.5	0	0	1	1.0801729	-9.2340483	110	1	1.12	0.95	93.6734	-0.9734	0.0000	0.0000;
	219	1	5.139	2.8	0	0	1	1.0595352	-9.3854604	110	1	1.12	0.95	94.8567	0.1396	0.0000	0.0000;
	220	1	5.41	1.5	0	0	1	1.0582708	-9.4666316	110	1	1.12	0.95	94.6576	0.0251	0.0000	0.0000;
	221	2	0	0	0	0	1	1.1106223	-5.0099381	110	1	1.12	0.95	91.7879	-0.2327	0.0000	0.0000;
	222	2	4.237	1.7	0	0	1	1.0994426	-2.88014	110	1	1.12	0.95	91.9673	0.0000	0.0000	0.0000;
	223	1	6.311	1.4	0	0	1	1.0667973	-8.9699535	110	1	1.12	0.95	93.9255	-0.1823	0.0000	0.0000;
	224	1	0.721	0.1	0	0	1	1.0504958	0.25216002	110	1	1.12	0.95	90.9851	0.0074	0.0000	0.0000;
	225	1	2.074	0.4	0	0	1	1.0727484	-10.756585	110	1	1.12	0.95	95.1407	-0.0081	0.0000	0.0000;
	226	1	1.803	0	0	0	1	1.0658049	-12.521912	110	1	1.12	0.95	96.5717	-0.3691	0.0000	0.0000;
	227	1	7.664	1.5	0	0	1	1.0759769	-9.2268089	110	1	1.12	0.95	94.3854	-1.1315	0.0000	0.0000;
	228	1	2.524	1	0	0	1	1.0670063	-9.1433891	110	1	1.12	0.95	94.0399	-0.1275	0.0000	0.0000;
	229	1	3.246	1	0	0	1	1.0670327	-9.1386718	110	1	1.12	0.95	94.0383	-0.1278	0.0000	0.0000;
	230	1	1.533	0.78	0	0	1	1.1047691	-1.9675502	110	1	1.12	0.95	91.2077	0.0815	0.0000	0.0000;
	231	1	1.533	0.78	0	0	1	1.1025028	-2.8364608	110	1	1.12	0.95	91.7079	0.0697	0.0000	0.0000;
	232	1	3.606	1	0	0	1	1.0617768	-9.0180406	110	1	1.12	0.95	94.1655	-0.0499	0.0000	0.0000;
	233	1	3.246	1	0	0	1	1.0581298	0.76398807	110	1	1.12	0.95	89.8944	0.3547	0.0000	0.0000;
	234	1	8.114	0.5	0	0	1	1.0671641	-4.7879123	110	1	1.12	0.95	92.8043	-0.7724	0.0000	0.0000;
	235	1	22.54	23	0	0	1	1.0400993	1.1035204	110	1	1.12	0.95	90.0587	0.5944	0.0000	0.0000;
	236	1	2.975	0.5	0	0	1	1.0598076	-11.841264	110	1	1.12	0.95	96.7137	-0.0893	0.0000	0.0000;
	237	1	4.057	1.78	0	0	1	1.1063548	-1.8134633	110	1	1.12	0.95	90.7875	0.0600	0.0000	0.0000;
	238	1	2.975	0.6	0	0	1	1.0594281	-11.893654	110	1	1.12	0.95	96.7725	-0.0936	0.0000	0.0000;
	239	1	2.254	1	0	0	1	1.0630405	-10.172291	110	1	1.12	0.95	95.3240	-0.3199	0.0000	0.0000;
	240	2	0	0	0	0	1	1.0586651	-10.018095	110	1	1.12	0.95	95.2580	0.0000	0.0000	0.0000;
	241	1	4.959	0.8	0	0	1	1.0677927	-13.754947	110	1	1.12	0.95	97.4442	0.0319	0.0000	0.0000;
	242	1	2.074	0.83	0	0	1	1.1041633	-2.3992098	110	1	1.12	0.95	91.2599	0.0271	0.0000	0.0000;
	243	1	3.336	0.4	0	0	1	1.1105617	-1.4045479	110	1	1.12	0.95	90.2912	-0.1998	0.0000	0.0000;
	244	1	3.336	0.4	0	0	1	1.1105779	-1.3931101	110	1	1.12	0.95	90.2904	-0.1986	0.0000	0.0000;
	245	1	1.623	1.5	0	0	1	1.0671566	-8.2948353	110	1	1.12	0.95	94.1273	0.0272	0.0000	0.0000;
	246	1	0	0	0	0	1	1.0602751	2.6684546	110	1	1.12	0.95	89.5292	0.0245	0.0000	0.0000;
	247	2	0	5	0	0	1	1.0458785	6.1713406	22	1	1.12	0.95	89.6459	0.0018	0.0000	0.0000;
	248	1	3.606	1	0	0	1	1.0641563	-13.288623	110	1	1.12	0.95	97.2708	-0.4735	0.0000	0.0000;
	249	1	1.352	0	0	0	1	1.0644642	-13.773286	110	1	1.12	0.95	96.6748	-0.2285	0.0000	0.0000;
	250	1	1.352	0	0	0	1	1.0672627	-12.752462	110	1	1.12	0.95	96.5880	-0.4438	0.0000	0.0000;
	251	1	1.352	0	0	0	1	1.0557569	-15.529258	110	1	1.12	0.95	99.9635	-0.9190	0.0000	0.0000;
	252	1	1.984	0.3	0	0	1	1.0728371	-9.0955636	110	1	1.12	0.95	93.9211	-0.1343	0.0000	0.0000;
	253	1	9.016	5	0	0	1	1.0606046	-5.9132576	110	1	1.12	0.95	92.5923	-0.1218	0.0000	0.0000;
	254	1	8.565	4	0	0	1	1.0621711	-9.0866345	110	1	1.12	0.95	94.1885	-0.0400	0.0000	0.0000;
	255	1	5.41	1	0	0	1	1.0598153	-15.516896	110	1	1.12	0.95	98.3593	-0.1944	0.0000	0.0000;
	256	1	7.213	1	0	0	1	1.0683952	-12.244653	110	1	1.12	0.95	96.1385	-0.5324	0.0000	0.0000;
	257	1	2.254	0	0	0	1	1.06844	-12.377538	110	1	1.12	0.95	96.1929	-0.5082	0.0000	0.0000;
	258	1	2.029	0.5	0	0	1	1.0574581	1.8667521	110	1	1.12	0.95	90.0240	0.0118	0.0000	0.0000;
	259	1	2.029	0.5	0	0	1	1.0574535	1.8633465	110	1	1.12	0.95	90.0251	0.0118	0.0000	0.0000;
	260	1	4.418	1.78	0	0	1	1.1001124	-2.3890269	110	1	1.12	0.95	91.6881	0.1817	0.0000	0.0000;
	261	1	2.254	0	0	0	1	1.0561894	-15.7444	110	1	1.12	0.95	100.1731	-1.0187	0.0000	0.0000;
	262	1	4.869	2.1	0	0	1	1.0672339	-8.8338643	110	1	1.12	0.95	93.8790	-0.2318	0.0000	0.0000;
	263	1	0	0	0	0	1	1.0663578	-8.0685318	110	1	1.12	0.95	93.4920	-0.3554	0.0000	0.0000;
	264	1	0.721	0.8	0	0	1	1.0602373	-12.54868	110	1	1.12	0.95	97.0585	-0.0204	0.0000	0.0000;
	265	1	19.835	20	0	0	1	1.0579933	2.2804579	110	1	1.12	0.95	89.6862	0.0503	0.0000	0.0000;
	266	1	31.555	33	0	0	1	1.0483536	0.64828384	110	1	1.12	0.95	89.9849	0.5656	0.0000	0.0000;
	267	1	24.344	0.9	0	0	1	1.0626117	2.5718837	110	1	1.12	0.95	89.5755	-0.0782	0.0000	0.0000;
	268	1	0.902	0	0	0	1	1.0620494	-8.8523377	110	1	1.12	0.95	94.0508	-0.0768	0.0000	0.0000;
	269	1	3.967	0.1	0	0	1	1.0687535	-8.8464726	110	1	1.12	0.95	94.1106	-0.2198	0.0000	0.0000;
	270	1	3.336	1.4	0	0	1	1.0735858	-9.0220168	110	1	1.12	0.95	93.8432	-0.0761	0.0000	0.0000;
	271	1	4.508	1	0	0	1	1.0756255	-9.4207268	110	1	1.12	0.95	94.4927	-1.1138	0.0000	0.0000;
	272	1	4.058	0.5	0	0	1	1.0550882	-15.313103	110	1	1.12	0.95	99.7690	-0.8184	0.0000	0.0000;
	273	1	5.229	1.45	0	0	1	1.0604688	-8.9059181	110	1	1.12	0.95	94.1291	-0.0662	0.0000	0.0000;
	274	1	0.36	0.1	0	0	1	1.0589226	-9.4004367	110	1	1.12	0.95	94.9418	0.1108	0.0000	0.0000;
	275	1	0.09	0.03	0	0	1	1.0664496	-8.7620881	110	1	1.12	0.95	93.7057	-0.2359	0.0000	0.0000;
	276	1	0	0	0	0	1	1.0656964	-8.8974965	110	1	1.12	0.95	93.8232	-0.2324	0.0000	0.0000;
	277	1	6.311	3.59	0	0	1	1.1102271	-1.3882202	110	1	1.12	0.95	90.6921	-0.0018	0.0000	0.0000;
	278	1	0	0	0	0	1	1.1061831	-1.9362589	110	1	1.12	0.95	90.7613	-0.0044	0.0000	0.0000;
	279	1	3.606	1.4	0	0	1	1.1012989	-2.7803264	110	1	1.12	0.95	91.7866	-0.0614	0.0000	0.0000;
	280	1	1.352	0.5	0	0	1	1.0757873	-9.613712	110	1	1.12	0.95	94.1945	-0.7567	0.0000	0.0000;
	281	1	2.705	0	0	0	1	1.0673377	-10.112989	110	1	1.12	0.95	94.9829	-0.2707	0.0000	0.0000;
	282	1	2.705	1	0	0	1	1.0674273	-8.7364977	110	1	1.12	0.95	93.6580	-0.2764	0.0000	0.0000;
	283	1	3.606	1	0	0	1	1.0655353	-8.635639	110	1	1.12	0.95	94.0075	-0.4332	0.0000	0.0000;
	284	1	16.229	16	0	0	1	1.0367171	0.49741921	110	1	1.12	0.95	90.1899	0.7357	0.0000	0.0000;
	285	1	40.572	42	0	0	1	1.0364355	0.49803562	110	1	1.12	0.95	90.1947	0.7387	0.0000	0.0000;
	286	1	0.992	0.3	0	0	1	1.0663208	2.4644553	110	1	1.12	0.95	89.5935	-0.3889	0.0000	0.0000;
	287	1	0	0	0	0	1	1.0593185	2.191025	110	1	1.12	0.95	89.7084	0.0083	0.0000	0.0000;
	288	1	4.779	2.1	0	0	1	1.1098076	-1.3027273	110	1	1.12	0.95	90.6496	0.0407	0.0000	0.0000;
	289	1	4.959	1.2	0	0	1	1.1071623	-1.7679207	110	1	1.12	0.95	91.0719	0.0392	0.0000	0.0000;
	290	1	4.508	1.5	0	0	1	1.0640106	-12.208117	110	1	1.12	0.95	96.4731	-0.2454	0.0000	0.0000;
	291	1	2.705	1	0	0	1	1.0753446	-10.382814	110	1	1.12	0.95	94.5387	-0.7848	0.0000	0.0000;
	292	1	2.524	2	0	0	1	1.0598758	-9.6108902	110	1	1.12	0.95	94.8810	-0.0927	0.0000	0.0000;
	293	1	1.443	0.4	0	0	1	1.1047431	-3.314001	110	1	1.12	0.95	92.0648	0.1369	0.0000	0.0000;
	294	1	9.466	4.2	0	0	1	1.0660674	-8.5863416	110	1	1.12	0.95	93.9546	-0.4454	0.0000	0.0000;
	295	1	7.213	2.5	0	0	1	1.0675095	-8.8077158	110	1	1.12	0.95	93.7591	-0.2593	0.0000	0.0000;
	296	1	2.795	1.13	0	0	1	1.1101307	-1.180001	110	1	1.12	0.95	90.5410	0.0599	0.0000	0.0000;
	297	1	1.406	1.1	0	0	1	1.0655308	-7.3218473	110	1	1.12	0.95	93.2428	-0.3208	0.0000	0.0000;
	298	1	2.164	0.4	0	0	1	1.0667209	-9.1952347	110	1	1.12	0.95	94.4564	-0.2277	0.0000	0.0000;
	299	1	3.787	0.5	0	0	1	1.104218	-3.3461992	110	1	1.12	0.95	92.1149	0.1274	0.0000	0.0000;
	300	1	3.606	0.7	0	0	1	1.1052561	-2.3562983	110	1	1.12	0.95	91.3466	-0.0446	0.0000	0.0000;
	301	1	2.885	1.27	0	0	1	1.1044809	-1.982926	110	1	1.12	0.95	91.1945	0.0934	0.0000	0.0000;
	302	1	4.598	1.85	0	0	1	1.1020999	-2.8626572	110	1	1.12	0.95	91.7399	0.0815	0.0000	0.0000;
	303	1	5.409	1	0	0	1	1.0779137	-9.3797859	110	1	1.12	0.95	94.0152	-0.9574	0.0000	0.0000;
	304	1	0	0	0	0	1	1.1064471	-1.9404173	110	1	1.12	0.95	90.7613	-0.0175	0.0000	0.0000;
	305	1	2.705	1	0	0	1	1.0472103	-0.11118547	110	1	1.12	0.95	91.4196	0.0604	0.0000	0.0000;
	306	1	5.86	2.57	0	0	1	1.1100905	-1.1803039	110	1	1.12	0.95	90.5418	0.0616	0.0000	0.0000;
	307	1	3.877	1.56	0	0	1	1.1041943	-2.3749988	110	1	1.12	0.95	91.2341	0.0289	0.0000	0.0000;
	308	1	5.229	2.11	0	0	1	1.1099847	-1.3353919	110	1	1.12	0.95	90.6608	0.0278	0.0000	0.0000;
	309	1	6.401	2.58	0	0	1	1.1040489	-2.0127486	110	1	1.12	0.95	91.2412	0.1043	0.0000	0.0000;
	310	2	8.934	4.46	0	0	1	1.1062873	-1.8446954	110	1	1.12	0.95	90.9502	0.0545	0.0000	0.0000;
	311	1	0.847	0.56	0	0	1	1.1042669	-1.9987839	110	1	1.12	0.95	91.2336	0.0974	0.0000	0.0000;
	312	2	7.57	3.66	0	0	1	1.1042288	-2.6033881	110	1	1.12	0.95	91.4685	0.0000	0.0000	0.0000;
	313	1	0	0	0	0	1	1.1043265	-1.9937813	110	1	1.12	0.95	91.2118	0.0972	0.0000	0.0000;
	314	2	4.173	2.02	0	0	1	1.1104713	-1.3393921	110	1	1.12	0.95	90.6475	0.0000	0.0000	0.0000;
	315	1	9.025	4.72	0	0	1	1.104729	-1.9575494	110	1	1.12	0.95	90.8803	0.0795	0.0000	0.0000;
	316	1	4.418	0.6	0	0	1	1.104486	-3.1735555	110	1	1.12	0.95	91.9648	0.1127	0.0000	0.0000;
	317	1	1.352	0.5	0	0	1	1.077129	-9.4176267	110	1	1.12	0.95	94.2783	-1.1021	0.0000	0.0000;
	318	1	2.254	1	0	0	1	1.057375	-9.8647569	110	1	1.12	0.95	95.1121	0.0448	0.0000	0.0000;
	319	1	2.254	1.25	0	0	1	1.0573559	-9.9856988	110	1	1.12	0.95	95.2484	0.0456	0.0000	0.0000;
	320	1	3.606	1.25	0	0	1	1.057331	-9.9831188	110	1	1.12	0.95	95.2469	0.0449	0.0000	0.0000;
	321	1	4.057	2	0	0	1	1.0629616	-8.7478262	110	1	1.12	0.95	93.8347	-0.1126	0.0000	0.0000;
	322	1	4.057	1.63	0	0	1	1.1099623	-1.2971315	110	1	1.12	0.95	90.6308	0.0399	0.0000	0.0000;
	323	2	7.213	2.9	0	0	1	1.1098701	-1.4068222	110	1	1.12	0.95	90.7163	0.0092	0.0000	0.0000;
	324	1	4.959	2.5	0	0	1	1.0657965	-10.333349	110	1	1.12	0.95	95.2327	-0.2118	0.0000	0.0000;
	325	1	6.582	2.89	0	0	1	1.1048546	-1.9424859	110	1	1.12	0.95	90.8736	0.0811	0.0000	0.0000;
	326	1	2.344	0.94	0	0	1	1.1060586	-1.8604191	110	1	1.12	0.95	90.9679	0.0608	0.0000	0.0000;
	327	1	2.344	0.94	0	0	1	1.1055952	-1.8957516	110	1	1.12	0.95	91.0288	0.0709	0.0000	0.0000;
	328	1	5.409	2.5	0	0	1	1.0667576	-10.124623	110	1	1.12	0.95	95.0158	-0.2288	0.0000	0.0000;
	329	1	7.663	2	0	0	1	1.0635491	-9.3933582	110	1	1.12	0.95	94.7703	-0.1284	0.0000	0.0000;
	330	1	5.139	2.07	0	0	1	1.1055754	-1.8974257	110	1	1.12	0.95	91.0311	0.0714	0.0000	0.0000;
	331	1	3.606	1.4	0	0	1	1.1052886	-2.2404219	110	1	1.12	0.95	91.2150	0.0282	0.0000	0.0000;