function mpc = case3375wp
%CASE3375WP  Power flow data for Polish system - winter 2007-08 evening peak.
%   Please see CASEFORMAT for details on the case file format.
%
%   This case represents the Polish 400, 220 and 110 kV networks during
%   winter 2007-08 evening peak conditions and includes some equivalents
%   of the German, Czech and Slovak networks.
%
%   This data was graciously provided by, and is distributed with the
%   permission of, Roman Korab <roman.korab@polsl.pl>.
%
%   Note: Bus 10287 is isolated, resulting in a singular power flow
%         Jacobian, and has been commented out. (RDZ 4/24/2015)

%   MATPOWER

%% MATPOWER Case Format : Version 2
mpc.version = '2';

%%-----  Power Flow Data  -----%%
%% system MVA base
mpc.baseMVA = 100;

%% bus data
%	bus_i	type	Pd	Qd	Gs	Bs	area	Vm	Va	baseKV	zone	Vmax	Vmin
mpc.bus = [
	10000	1	0	0	0	0	0	1.04687	-10.70488	400	0	1.05	0.95;
	10001	1	0	0	0	0	0	1.04837	-15.04781	400	0	1.05	0.95;
	10002	1	0	0	0	0	0	1.07251	-16.96552	220	0	1.11	0.95;
	10003	1	0	0	0	0	0	1.04525	-17.93119	400	0	1.05	0.95;
	10004	1	0	0	0	0	0	1.04396	-13.97333	400	0	1.05	0.95;
	10005	1	0	0	0	0	0	1.04437	-16.49872	400	0	1.05	0.95;
	10006	1	0	0	0	0	0	1.04078	-9.90352	400	0	1.05	0.95;
	10007	1	0	0	0	0	0	1.07323	-15.91864	220	0	1.11	0.95;
	10008	1	0	0	0	0	0	1.07074	-18.07504	220	0	1.11	0.95;
	10009	1	0	0	0	0	0	1.04438	-17.28051	400	0	1.05	0.95;
	10010	1	0	0	0	0	0	1.04912	-12.07385	400	0	1.05	0.95;
	10011	1	0	0	0	0	0	1.04471	-18.59454	400	0	1.05	0.95;
	10012	1	0	0	0	0	0	1.04471	-18.59454	400	0	1.05	0.95;
	10013	1	0	0	0	0	0	1.04559	-12.19767	400	0	1.05	0.95;
	10014	1	0	0	0	0	0	1.0458	-12.22917	400	0	1.05	0.95;
	10015	1	0	0	0	0	0	1.0447	-18.15425	400	0	1.05	0.95;
	10016	1	0	0	0	0	0	1.04578	-12.11669	400	0	1.05	0.95;
	10017	1	0	0	0	0	0	1.04572	-12.12076	400	0	1.05	0.95;
	10018	1	0	0	0	0	0	1.0457	-12.11351	400	0	1.05	0.95;
	10019	1	0	0	0	0	0	1.0458	-12.2292	400	0	1.05	0.95;
	10020	1	0	0	0	0	0	1.05	-14.07745	400	0	1.05	0.95;
	10021	1	0	0	0	0	0	1.07631	-16.60737	220	0	1.11	0.95;
	10022	1	0	0	0	0	0	1.07483	-17.01984	220	0	1.11	0.95;
	10023	1	0	0	0	0	0	1.04582	-11.75662	400	0	1.05	0.95;
	10024	1	0	0	0	0	0	1.04557	-11.85608	400	0	1.05	0.95;
	10025	1	0	0	0	0	0	1.04573	-11.8032	400	0	1.05	0.95;
	10026	1	0	0	0	0	0	1.04137	-8.03514	400	0	1.05	0.95;
	10027	1	0	0	0	0	0	1.04176	-7.76212	400	0	1.05	0.95;
	10028	1	0	0	0	0	0	1.04187	-7.56465	400	0	1.05	0.95;
	10029	1	0	0	0	0	0	1.04913	-11.5362	400	0	1.05	0.95;
	10030	1	0	0	0	0	0	1.04912	-11.53101	400	0	1.05	0.95;
	10031	1	0	0	0	0	0	1.08683	-11.59324	220	0	1.11	0.95;
	10032	1	0	0	0	0	0	1.04142	-8.05065	400	0	1.05	0.95;
	10033	1	0	0	0	0	0	1.04141	-8.05055	400	0	1.05	0.95;
	10034	1	0	0	0	0	0	1.0426	-14.14929	400	0	1.05	0.95;
	10035	1	0	0	0	0	0	1.07253	-12.37237	220	0	1.11	0.95;
	10036	1	0	0	0	0	0	1.07259	-12.38001	220	0	1.11	0.95;
	10037	1	0	0	0	0	0	1.04141	-8.14861	400	0	1.05	0.95;
	10038	1	0	0	0	0	0	1.04145	-8.15657	400	0	1.05	0.95;
	10039	1	0	0	0	0	0	1.04189	-8.20445	400	0	1.05	0.95;
	10040	1	0	0	0	0	0	1.04506	-12.91957	400	0	1.05	0.95;
	10041	1	0	0	0	0	0	1.04919	-11.66977	400	0	1.05	0.95;
	10042	1	0	0	0	0	0	1.04486	-18.81658	400	0	1.05	0.95;
	10043	1	0	0	0	0	0	1.06595	-14.1772	220	0	1.11	0.95;
	10044	1	0	0	0	0	0	1.07305	-13.3306	220	0	1.11	0.95;
	10045	1	0	0	0	0	0	1.06741	-18.93627	220	0	1.11	0.95;
	10046	1	0	0	0	0	0	1.07479	-17.01935	220	0	1.11	0.95;
	10047	1	0	0	0	0	0	1.04347	-19.72898	400	0	1.05	0.95;
	10048	1	0	0	0	0	0	1.04593	-11.20792	400	0	1.05	0.95;
	10049	1	0	0	0	0	0	1.04881	-11.71874	400	0	1.05	0.95;
	10050	1	0	0	0	0	0	1.04919	-11.66977	400	0	1.05	0.95;
	10051	1	0	0	0	0	0	1.06435	-18.64806	220	0	1.11	0.95;
	10052	1	0	0	0	0	0	1.04276	-16.39521	400	0	1.05	0.95;
	10053	1	0	0	0	0	0	1.08851	-11.03458	220	0	1.11	0.95;
	10054	1	0	0	0	0	0	1.08851	-11.03458	220	0	1.11	0.95;
	10055	1	0	0	0	0	0	1.08025	-14.93844	220	0	1.11	0.95;
	10056	1	0	0	0	0	0	1.04177	-10.15342	400	0	1.05	0.95;
	10057	1	0	0	0	0	0	1.0397	-9.14536	400	0	1.05	0.95;
	10058	1	0	0	0	0	0	1.05983	-16.70686	220	0	1.11	0.95;
	10059	1	0	0	0	0	0	1.05	-15.8165	400	0	1.05	0.95;
	10060	1	0	0	0	0	0	1.04143	-8.15259	400	0	1.05	0.95;
	10061	1	0	0	0	0	0	1.04177	-10.15342	400	0	1.05	0.95;
	10062	1	0	0	0	0	0	1.04302	-15.75403	400	0	1.05	0.95;
	10063	1	0	0	0	0	0	1.04579	-12.22916	400	0	1.05	0.95;
	10064	1	0	0	0	0	0	1.06571	-16.28209	220	0	1.11	0.95;
	10065	1	0	0	0	0	0	1.04673	-13.53303	400	0	1.05	0.95;
	10066	1	0	0	0	0	0	1.04876	-12.21379	400	0	1.05	0.95;
	10067	1	0	0	0	0	0	1.06752	-15.36971	220	0	1.11	0.95;
	10068	1	0	0	0	0	0	1.04901	-13.12103	400	0	1.05	0.95;
	10069	1	0	0	0	0	0	1.06642	-19.22427	220	0	1.11	0.95;
	10070	1	0	0	0	0	0	1.04467	-18.59429	400	0	1.05	0.95;
	10071	2	16	8	0	0	0	1.07617	-15.28959	220	0	1.11	0.95;
	10072	1	0	0	0	0	0	1.08597	-11.76891	220	0	1.11	0.95;
	10073	1	0	0	0	0	1	1.0747	-13.36695	220	0	1.11	0.95;
	10074	1	0	0	0	0	0	1.07385	-13.34281	220	0	1.11	0.95;
	10075	1	0	0	0	0	0	1.07257	-14.1716	220	0	1.11	0.95;
	10076	1	0	0	0	0	0	1.04556	-11.85601	400	0	1.05	0.95;
	10077	1	0	0	0	0	0	1.04556	-11.85601	400	0	1.05	0.95;
	10078	1	305.5	-14	0	0	0	1.03456	-8.21584	400	0	1.05	0.95;
	10079	2	-1529.6	4542.9	0	0	0	1.01319	-0.05172	400	0	1.05	0.95;
	10080	2	-159.1	-181	0	0	0	1.02855	-4.88451	400	0	1.05	0.95;
	10081	1	-1078.3	-374.1	0	0	0	1.03447	-0.91888	400	0	1.05	0.95;
	10082	1	943.2	310.2	0	0	0	1.00371	-4.43737	400	0	1.05	0.95;
	10083	1	97	26	0	0	0	1.04136	-5.54383	400	0	1.05	0.95;
	10084	1	0.6	160	0	0	0	1.04213	-5.41022	400	0	1.05	0.95;
	10085	1	161.6	183.6	0	0	0	1.04114	-5.52506	400	0	1.05	0.95;
	10086	1	288.6	221.6	0	0	0	1.04113	-5.52774	400	0	1.05	0.95;
	10087	1	0	0	0	0	0	1.0431	-5.31775	400	0	1.05	0.95;
	10088	1	0	0	0	0	0	1.08895	-5.62324	220	0	1.11	0.95;
	10089	1	0	0	0	0	0	1.08671	-5.74853	220	0	1.11	0.95;
	10090	2	274.4	279.6	0	0	0	1.04139	-5.51893	400	0	1.05	0.95;
	10091	1	94.2	111.8	0	0	0	1.04083	-5.53521	400	0	1.05	0.95;
	10092	1	0	0	0	0	0	1.0851	-5.81601	220	0	1.11	0.95;
	10093	1	0	0	0	0	0	1.08774	-5.67067	220	0	1.11	0.95;
	10094	2	0	0	0	0	0	1.03526	-4.64081	400	0	1.05	0.95;
	10095	2	4.4	-2590.1	0	0	0	1.02969	-6.03574	400	0	1.05	0.95;
	10096	1	488	79.1	0	0	0	1.02127	-6.23895	400	0	1.05	0.95;
	10097	1	601	147.9	0	0	0	1.02468	-6.14923	400	0	1.05	0.95;
	10098	1	527	265.1	0	0	0	1.02591	-5.42562	400	0	1.05	0.95;
	10099	1	0	0	0	0	0	1.00482	-2.42812	400	0	1.05	0.95;
	10100	2	0	0	0	0	0	1.04073	-0.86289	400	0	1.05	0.95;
	10101	1	0	0	0	0	0	1.03993	-13.17887	220	0	1.11	0.95;
	10102	1	120	25	0	0	0	1.0587	-7.39157	220	0	1.11	0.95;
	10103	1	0	0	0	0	0	1.03974	-3.47171	400	0	1.05	0.95;
	10104	2	200.2	48.7	0	0	0	1.04409	-2.35603	400	0	1.05	0.95;
	10105	1	0	0	0	0	0	1.06465	-7.80747	220	0	1.11	0.95;
	10106	1	0	0	0	0	0	1.03444	-4.47152	400	0	1.05	0.95;
	10107	1	0	0	0	0	0	1.04224	-3.12182	400	0	1.05	0.95;
	10108	1	0	0	0	0	0	1.04282	-2.80538	400	0	1.05	0.95;
	10109	1	0	0	0	0	0	1.0422	-3.04523	400	0	1.05	0.95;
	10110	1	0	0	0	0	0	1.0428	-2.72415	400	0	1.05	0.95;
	10111	1	0	0	0	0	0	1.02625	-1.81906	400	0	1.05	0.95;
	10112	1	0	0	0	0	0	1.10809	-5.03261	220	0	1.11	0.95;
	10113	1	0	0	0	0	0	1.01806	-2.51227	400	0	1.05	0.95;
	10114	1	0	0	0	0	0	1.09061	-6.95533	220	0	1.11	0.95;
	10115	2	0	0	0	0	0	1.00234	-2.20727	400	0	1.05	0.95;
	10116	2	0	0	0	0	0	1.00234	-2.20727	400	0	1.05	0.95;
	10117	1	0	0	0	0	0	1.03218	-5.38558	400	0	1.05	0.95;
	10118	2	0	0	0	0	0	1.04097	-0.52486	400	0	1.05	0.95;
	10119	1	0	0	0	0	0	1.01219	-3.2983	400	0	1.05	0.95;
	10120	1	0	0	0	0	0	1.03983	-3.96258	400	0	1.05	0.95;
	10121	1	80	20	0	0	0	1.05717	-6.34415	220	0	1.11	0.95;
	10122	1	0	0	0	0	0	1.05022	-9.78444	220	0	1.11	0.95;
	10123	1	0	0	0	0	0	1.04891	-3.71076	400	0	1.05	0.95;
	10124	1	0	0	0	0	0	1.05	-0.9584	400	0	1.05	0.95;
	10125	1	0	0	0	0	0	1.01317	-4.39221	400	0	1.05	0.95;
	10126	2	0	0	0	0	0	1.00802	-3.54138	400	0	1.05	0.95;
	10127	1	0	0	0	0	0	1.09612	-7.22408	220	0	1.11	0.95;
	10128	1	0	0	0	0	0	1.09612	-7.22408	220	0	1.11	0.95;
	10129	2	0.2	100	0	0	0	1.04538	0.02453	400	0	1.05	0.95;
	10130	1	0	0	0	0	0	1.04546	-0.00196	400	0	1.05	0.95;
	10131	1	0	0	0	0	0	1.00966	-4.04069	400	0	1.05	0.95;
	10132	2	0	0	0	0	0	1.02908	-4.54928	400	0	1.05	0.95;
	10133	1	0	0	0	0	0	1.05	-4.33366	400	0	1.05	0.95;
	10134	1	0	0	0	0	0	1.04707	-4.96621	400	0	1.05	0.95;
	10135	1	0	0	0	0	0	1.05137	-5.13694	220	0	1.11	0.95;
	10136	1	0	0	0	0	0	1.07164	-7.48745	220	0	1.11	0.95;
	10137	1	0	0	0	0	0	1.03873	-15.98919	220	0	1.11	0.95;
	10138	1	0	0	0	0	0	1.03401	-5.16183	400	0	1.05	0.95;
	10139	2	0	0	0	0	0	1.03742	-1.81786	400	0	1.05	0.95;
	10140	2	0	0	0	0	0	1.03856	-1.33469	400	0	1.05	0.95;
	10141	2	0	0	0	0	0	1.01264	-1.61676	400	0	1.05	0.95;
	10142	1	0	0	0	0	0	1.03744	-4.88394	400	0	1.05	0.95;
	10143	1	0	0	0	0	0	1.03597	-3.0404	400	0	1.05	0.95;
	10144	1	0	0	0	0	0	1.03599	-3.03915	400	0	1.05	0.95;
	10145	1	0	0	0	0	0	1.01027	-3.74196	400	0	1.05	0.95;
	10146	2	0	0	0	0	0	1.04296	-3.5178	220	0	1.11	0.95;
	10147	1	0	0	0	0	0	1.03128	-5.37046	400	0	1.05	0.95;
	10148	1	0	0	0	0	0	1.07357	-7.15426	220	0	1.11	0.95;
	10149	1	0	0	0	0	0	1.07355	-7.15711	220	0	1.11	0.95;
	10150	2	0	0	0	0	0	1.04015	-3.34555	400	0	1.05	0.95;
	10151	1	0	0	0	0	0	1.04146	-3.0972	400	0	1.05	0.95;
	10152	1	0	0	0	0	0	1.04668	-1.42588	400	0	1.05	0.95;
	10153	1	0	0	0	0	0	1.03101	-2.84339	400	0	1.05	0.95;
	10154	1	80	20	0	0	0	1.03599	-4.25547	220	0	1.11	0.95;
	10155	1	0	0	0	0	0	1.08192	-7.36524	220	0	1.11	0.95;
	10156	1	0	0	0	0	0	1.03079	-5.15792	400	0	1.05	0.95;
	10157	1	0	0	0	0	0	1.08715	-5.5406	220	0	1.11	0.95;
	10158	1	0	0	0	0	0	1.01375	-2.96684	400	0	1.05	0.95;
	10159	1	0	0	0	0	0	1.11	-4.89462	220	0	1.11	0.95;
	10160	1	0	0	0	0	0	1.0642	-17.66826	220	0	1.11	0.95;
	10161	1	0	0	0	0	0	1.02091	-4.68112	400	0	1.05	0.95;
	10162	1	0	0	0	0	0	1.05927	-8.90546	220	0	1.11	0.95;
	10163	1	0	0	0	0	0	1.09451	-7.44737	220	0	1.11	0.95;
	10164	1	0	0	0	0	0	1.02895	-4.92842	400	0	1.05	0.95;
	10165	1	0	0	0	0	0	1.03338	-5.57007	400	0	1.05	0.95;
	10166	1	0	0	0	0	0	1.06606	-6.42146	220	0	1.11	0.95;
	10167	1	0	0	0	0	0	1.02906	-5.04152	400	0	1.05	0.95;
	10168	1	0	0	0	0	0	1.02906	-5.04152	400	0	1.05	0.95;
	10169	1	0	0	0	0	0	1.02941	-4.99501	400	0	1.05	0.95;
	10170	1	0	0	0	0	0	1.02941	-4.99501	400	0	1.05	0.95;
	10171	2	-104.8	-159	0	0	0	1.02955	-4.63616	400	0	1.05	0.95;
	10172	1	247.4	-57.5	0	0	0	1.02972	-6.04019	400	0	1.05	0.95;
	10173	1	247.4	-57.5	0	0	0	1.02972	-6.04019	400	0	1.05	0.95;
	10174	1	371.5	403.5	0	0	0	1.02061	-6.26044	400	0	1.05	0.95;
	10176	2	-249.9	162.6	0	0	0	1.02979	-4.79163	400	0	1.05	0.95;
	10177	2	-249.9	162.6	0	0	0	1.02979	-4.79163	400	0	1.05	0.95;
	10178	1	52.5	207.2	0	0	0	1.02727	-10.4183	400	0	1.05	0.95;
	10179	1	379.5	54.6	0	0	0	1.03892	-13.22007	400	0	1.05	0.95;
	10180	1	73.6	-95.6	0	0	0	1.08759	-16.75353	220	0	1.11	0.95;
	10181	1	73.6	-95.6	0	0	0	1.08759	-16.75353	220	0	1.11	0.95;
	10182	1	107.2	-44.4	0	0	0	1.05	-12.71113	400	0	1.05	0.95;
	10183	1	86	8	0	0	0	1.04861	-10.45398	400	0	1.05	0.95;
	10184	1	70	49	0	0	0	1.05073	-14.33097	220	0	1.11	0.95;
	10185	1	0	0	0	0	0	1.04939	-12.67172	400	0	1.05	0.95;
	10186	2	0	0	0	0	0	1.08932	-7.60913	220	0	1.11	0.95;
	10187	2	0	0	0	0	0	1.0894	-7.57617	220	0	1.11	0.95;
	10188	2	0	0	0	0	0	1.04594	-9.12003	400	0	1.05	0.95;
	10189	2	10.2	0	0	0	0	1.04556	-10.36714	400	0	1.05	0.95;
	10190	2	0	0	0	0	0	1.04288	-9.96023	400	0	1.05	0.95;
	10191	2	0	0	0	0	0	1.04288	-9.95495	400	0	1.05	0.95;
	10192	2	0	0	0	0	0	1.04073	-11.04322	220	0	1.11	0.95;
	10193	1	0	0	0	0	0	1.04073	-11.04554	220	0	1.11	0.95;
	10194	2	0	0	0	0	0	1.03584	-9.39911	400	0	1.05	0.95;
	10195	1	0	0	0	0	0	1.03662	-9.43812	400	0	1.05	0.95;
	10196	2	0	0	0	0	0	1.04091	-12.69816	400	0	1.05	0.95;
	10197	1	295	51.9	0	0	0	1.04399	-12.22816	400	0	1.05	0.95;
	10198	1	0	0	0	0	0	1.04664	-10.86919	400	0	1.05	0.95;
	10199	1	308	40	0	0	0	1.08152	-10.10172	220	0	1.11	0.95;
	10200	1	0	0	0	0	0	1.08153	-10.08501	220	0	1.11	0.95;
	10201	1	0	0	0	0	0	1.02697	-10.79239	400	0	1.05	0.95;
	10202	1	103	28	0	0	0	1.03005	-12.57582	220	0	1.11	0.95;
	10203	1	0	0	0	0	0	1.03005	-12.57582	220	0	1.11	0.95;
	10204	1	170	33	0	0	0	1.0408	-10.43423	400	0	1.05	0.95;
	10205	1	154	6	0	0	0	1.04863	-12.66758	400	0	1.05	0.95;
	10206	1	150	15	0	0	0	1.02862	-17.76737	220	0	1.11	0.95;
	10207	1	113	15	0	0	0	1.0439	-11.25141	400	0	1.05	0.95;
	10208	1	65	11	0	0	0	1.04565	-12.22395	400	0	1.05	0.95;
	10209	1	60	10	0	0	0	1.05635	-15.00801	220	0	1.11	0.95;
	10210	1	204	16.9	0	0	0	1.04548	-11.97728	400	0	1.05	0.95;
	10211	1	142	10.9	0	0	0	1.06702	-14.43722	220	0	1.11	0.95;
	10212	1	83	19	0	0	0	1.04142	-15.74593	220	0	1.11	0.95;
	10213	1	189	35	0	0	0	1.03546	-12.28418	400	0	1.05	0.95;
	10214	1	17	6	0	0	0	1.04833	-12.69685	400	0	1.05	0.95;
	10215	1	0	0	0	0	0	1.04908	-12.48244	400	0	1.05	0.95;
	10216	1	2	-6	0	0	0	1.04552	-15.08244	220	0	1.11	0.95;
	10217	1	88	-4	0	0	0	1.05	-12.21481	400	0	1.05	0.95;
	10218	1	0	0	0	0	0	1.04267	-10.20161	400	0	1.05	0.95;
	10219	1	0	0	0	0	0	1.04267	-10.1978	400	0	1.05	0.95;
	10220	1	0	0	0	0	0	1.0366	-9.43804	400	0	1.05	0.95;
	10221	1	0	0	0	0	0	1.03886	-8.62781	400	0	1.05	0.95;
	10222	1	50	20	0	0	0	1.03211	-12.19988	220	0	1.11	0.95;
	10223	2	-338.1	155.6	0	0	0	1.04073	-7.81766	400	0	1.05	0.95;
	10225	2	195.7	126.6	0	0	0	1.06248	-13.81633	110	0	1.12	0.95;
	10226	2	141.9	93.1	0	0	0	1.06441	-10.69182	110	0	1.12	0.95;
	10227	2	234.5	57.5	0	0	0	1.10423	-17.44457	110	0	1.12	0.95;
	10228	2	388.2	98.2	0	0	0	1.06247	-26.93097	110	0	1.12	0.95;
	10229	2	84.7	29.1	0	0	0	1.06902	-18.42187	110	0	1.12	0.95;
	10230	2	0	0	0	0	0	1.07323	-12.3377	110	0	1.12	0.95;
	10231	1	194.4	43.4	0	0	0	1.0183	-23.93631	110	0	1.12	0.95;
	10232	2	195.7	43.3	0	0	0	1.01987	-23.76967	110	0	1.12	0.95;
	10233	2	513.7	92.5	0	0	0	1.04665	-19.09981	110	0	1.12	0.95;
	10234	2	455.4	108.8	0	0	0	1.09129	-28.95277	110	0	1.12	0.95;
	10235	2	61.8	19.6	0	0	0	1.08091	-18.72336	110	0	1.12	0.95;
	10236	2	260.8	80.8	0	0	0	1.07896	-11.33262	110	0	1.12	0.95;
	10237	2	199.4	65.6	0	0	0	1.08023	-18.74809	110	0	1.12	0.95;
	10238	2	395	96.4	0	0	0	1.00809	-24.04735	110	0	1.12	0.95;
	10239	2	344.4	71	0	0	0	1.06246	-15.10374	110	0	1.12	0.95;
	10240	2	0	0	0	0	0	1.0666	-10.01367	110	0	1.12	0.95;
	10241	1	0	0	0	0	0	1.07019	-10.92594	110	0	1.12	0.95;
	10242	1	0	0	0	0	0	1.07381	-17.48996	110	0	1.12	0.95;
	10243	1	0	0	0	0	0	1.06266	-13.81703	110	0	1.12	0.95;
	10244	1	0	0	0	0	0	1.06623	-9.05663	110	0	1.12	0.95;
	10245	1	185.4	59.7	0	0	0	1.07935	-18.76304	110	0	1.12	0.95;
	10246	2	4	2	0	0	0	1.03917	-8.50193	14	0	1.12	0.95;
	10247	2	14	10	0	0	0	1.12	-8.38281	14	0	1.12	0.95;
	10248	2	14	10	0	0	0	1.12	-5.92631	14	0	1.12	0.95;
	10249	2	5	3	0	0	0	1.00179	-15.67326	23	0	1.12	0.95;
	10250	2	28	17	0	0	0	1.0404	-7.15858	16	0	1.12	0.95;
	10251	2	28	17	0	0	0	1.03995	-7.15971	16	0	1.12	0.95;
	10252	2	28	17	0	0	0	1.03994	-7.15236	16	0	1.12	0.95;
	10253	2	26.7	5.9	0	0	0	1.01534	-16.29544	15	0	1.12	0.95;
	10254	2	23	10	0	0	0	1.04999	-9.99449	20	0	1.12	0.95;
	10255	2	4	2	0	0	0	1.03994	-13.14222	16	0	1.12	0.95;
	10256	2	30	10	0	0	0	1.11998	-8.70427	16	0	1.12	0.95;
	10257	2	15	5	0	0	0	1.11817	-10.27505	16	0	1.12	0.95;
	10258	2	20	8	0	0	0	1.10518	-5.2305	16	0	1.12	0.95;
	10259	2	30	14	0	0	0	0.98182	-4.11356	17	0	1.12	0.95;
	10260	2	45	21	0	0	0	1.10941	-4.70641	17	0	1.12	0.95;
	10261	2	80	40	0	0	0	0.99592	-8.44878	25	0	1.12	0.95;
	10262	2	80	40	0	0	0	0.99592	-8.44355	25	0	1.12	0.95;
	10263	2	10	4	0	0	0	1.09219	-8.80241	14	0	1.12	0.95;
	10264	2	30	10	0	0	0	1.00552	-4.42061	17	0	1.12	0.95;
	10265	2	30	10	0	0	0	1.10573	-4.66225	16	0	1.12	0.95;
	10266	2	298.7	37.9	0	0	0	1.04403	-17.38244	110	0	1.12	0.95;
	10267	2	198.4	53.4	0	0	0	1.08131	-15.61818	110	0	1.12	0.95;
	10268	2	114.8	20.4	0	0	0	1.06395	-13.81804	110	0	1.12	0.95;
	10269	2	275.2	110.6	0	0	0	1.07428	-17.2699	110	0	1.12	0.95;
	10270	2	61.8	23.7	0	0	0	1.05973	-13.22787	110	0	1.12	0.95;
	10271	2	385.3	67	0	0	0	1.06494	-21.87399	110	0	1.12	0.95;
	10272	2	104.1	17.5	0	0	0	1.072	-19.12522	110	0	1.12	0.95;
	10273	2	541	91.4	0	0	0	1.02431	-23.78277	110	0	1.12	0.95;
	10274	2	256.3	100.7	0	0	0	1.06504	-14.1841	110	0	1.12	0.95;
	10275	2	0	0	0	0	0	1.06182	-12.32377	110	0	1.12	0.95;
	10276	2	164.4	34	0	0	0	1.06034	-19.38658	110	0	1.12	0.95;
	10277	2	616.8	133.2	0	0	0	1.06264	-20.31444	110	0	1.12	0.95;
	10278	2	15	10	0	0	0	1.11356	-7.71481	12	0	1.12	0.95;
	10279	2	15	10	0	0	0	1.11356	-7.71481	12	0	1.12	0.95;
	10280	1	149.8	37	0	0	0	1.05742	-13.40637	110	0	1.12	0.95;
	10281	2	106	22.4	0	0	0	1.07868	-17.51779	110	0	1.12	0.95;
	10282	2	363.9	100.1	0	0	0	1.06767	-21.77961	110	0	1.12	0.95;
	10283	1	0	0	0	0	0	1.01468	-23.76967	13	0	1.12	0.95;
	10284	2	1122.7	280.7	0	0	0	1.12	-20.1553	110	0	1.12	0.95;
	10285	2	155.7	32.1	0	0	0	1.0574	-14.40001	110	0	1.12	0.95;
%	10287	1	0	0	0	0	0	1	0	110	0	1.12	0.95;	% this bus is isolated (rdz)
	10288	2	197.5	44.6	0	0	0	1.03369	-17.16989	110	0	1.12	0.95;
	10289	2	124.6	23.4	0	0	0	1.05256	-17.86813	110	0	1.12	0.95;
	10290	2	148.9	31.1	0	0	0	1.06119	-22.81444	110	0	1.12	0.95;
	10291	2	264.7	53.5	0	0	0	1.08362	-23.82921	110	0	1.12	0.95;
	10292	2	364.8	158.7	0	0	0	1.08678	-12.45458	110	0	1.12	0.95;
	10293	2	54.6	21.6	0	0	0	1.07356	-17.48899	110	0	1.12	0.95;
	10294	2	17.5	3.9	0	0	1	1.08819	-13.63431	110	0	1.12	0.95;
	10295	2	344.4	104	0	0	0	0.99474	-17.18159	110	0	1.12	0.95;
	10296	2	275.3	104.1	0	0	0	1.08634	-17.92203	110	0	1.12	0.95;
	10297	1	163.6	2.3	0	0	0	1.11082	-7.22832	110	0	1.12	0.95;
	10298	1	90.7	61	0	0	0	1.07174	-6.78749	110	0	1.12	0.95;
	10299	1	314	87	0	0	0	1.04695	-7.84988	110	0	1.12	0.95;
	10300	1	34	13	0	0	0	1.04421	-10.88209	110	0	1.12	0.95;
	10301	1	107	-22	0	0	0	1.07855	-7.22395	110	0	1.12	0.95;
	10302	1	161	58	0	0	0	1.09222	-10.5003	110	0	1.12	0.95;
	10303	1	161.5	37	0	0	0	1.05534	-10.03917	110	0	1.12	0.95;
	10304	1	161.5	37	0	0	0	1.05534	-10.03917	110	0	1.12	0.95;
	10305	1	232	-45.9	0	0	0	1.10778	-8.12369	110	0	1.12	0.95;
	10306	1	143	58.1	0	0	0	1.09145	-6.39794	110	0	1.12	0.95;
	10307	1	111.5	32.5	0	0	0	1.07241	-10.07733	110	0	1.12	0.95;
	10308	1	111.5	32.5	0	0	0	1.09137	-7.5084	110	0	1.12	0.95;
	10309	1	124	8.1	0	0	0	1.06294	-5.43913	110	0	1.12	0.95;
	10310	1	28.5	6	0	0	0	1.04084	-11.86881	110	0	1.12	0.95;
	10311	1	28.5	6	0	0	0	1.04084	-11.86881	110	0	1.12	0.95;
	10312	1	135	74	0	0	0	1.0479	-8.54622	110	0	1.12	0.95;
	10313	1	0	0	0	0	0	1.04454	-5.10084	110	0	1.12	0.95;
	10314	1	0	0	0	0	0	1.04454	-5.09922	110	0	1.12	0.95;
	10315	1	110	34	0	0	0	1.09352	-4.05964	110	0	1.12	0.95;
	10316	1	110	34	0	0	0	1.09338	-4.06012	110	0	1.12	0.95;
	10317	1	100	32	0	0	0	1.09382	-4.05869	110	0	1.12	0.95;
	10318	1	37	35	0	0	0	1.05289	-4.68355	110	0	1.12	0.95;
	10319	1	93	80	0	0	0	1.06177	-7.11307	110	0	1.12	0.95;
	10320	1	30	18	0	0	0	1.07986	-4.96142	110	0	1.12	0.95;
	10321	1	189	38	0	0	0	1.0353	-12.90356	110	0	1.12	0.95;
	10322	1	78.5	21	0	0	0	1.07974	-7.23949	110	0	1.12	0.95;
	10323	1	78.5	21	0	0	0	1.07974	-7.23949	110	0	1.12	0.95;
	10324	1	190	22	0	0	0	1.09021	-7.80898	110	0	1.12	0.95;
	10325	1	42.6	31.4	0	0	0	1.03672	-5.06258	110	0	1.12	0.95;
	10326	1	170.4	125.6	0	0	0	1.05028	-6.56373	110	0	1.12	0.95;
	10327	1	106	50	0	0	0	1.02247	-11.25013	110	0	1.12	0.95;
	10328	1	94	60.6	0	0	0	1.01616	-7.46571	110	0	1.12	0.95;
	10329	1	94	60.6	0	0	0	1.01616	-7.46571	110	0	1.12	0.95;
	10330	1	133.5	25.5	0	0	0	1.02385	-13.52995	110	0	1.12	0.95;
	10331	1	133.5	25.5	0	0	0	1.02385	-13.52995	110	0	1.12	0.95;
	10332	1	121	31.9	0	0	0	1.03381	-6.83166	110	0	1.12	0.95;
	10333	1	125	3	0	0	0	1.11843	-9.53252	110	0	1.12	0.95;
	10334	1	210	0	0	0	0	1.0128	-21.49132	110	0	1.12	0.95;
	10335	1	62	33.5	0	0	0	1.05347	-8.04462	110	0	1.12	0.95;
	10336	1	62	33.5	0	0	0	1.05347	-8.04462	110	0	1.12	0.95;
	10337	1	85	5	0	0	0	1.02004	-5.32478	110	0	1.12	0.95;
	10338	1	85	5	0	0	0	1.02118	-4.83383	110	0	1.12	0.95;
	10339	1	147	36	0	0	0	1.04451	-5.10546	110	0	1.12	0.95;
	10340	1	147	36	0	0	0	1.04456	-5.09664	110	0	1.12	0.95;
	10341	1	44	0	0	0	0	1.08635	-5.03949	110	0	1.12	0.95;
	10342	1	33	-19	0	0	0	1.02361	-4.10959	110	0	1.12	0.95;
	10343	1	107	22	0	0	0	1.04896	-6.31433	110	0	1.12	0.95;
	10344	1	157	46	0	0	0	1.08553	-8.88587	110	0	1.12	0.95;
	10345	1	95	21	0	0	0	1.10631	-10.27971	110	0	1.12	0.95;
	10346	1	67.5	7	0	0	0	1.04395	-11.77881	110	0	1.12	0.95;
	10347	1	67.5	7	0	0	0	1.04395	-11.77881	110	0	1.12	0.95;
	10348	1	102	17	0	0	0	1.07055	-6.88126	110	0	1.12	0.95;
	10349	1	102	17	0	0	0	1.05869	-6.96516	110	0	1.12	0.95;
	10350	1	109	25	0	0	0	1.09006	-3.22107	110	0	1.12	0.95;
	10351	1	181	45.1	0	0	0	1.06554	-5.93954	110	0	1.12	0.95;
	10352	1	45	25	0	0	0	1.06555	-4.37582	110	0	1.12	0.95;
	10353	1	62	38.5	0	0	0	1.11857	-9.31326	110	0	1.12	0.95;
	10354	1	62	38.5	0	0	0	1.11857	-9.31326	110	0	1.12	0.95;
	10355	1	300	57	0	0	0	1.05618	-10.4405	110	0	1.12	0.95;
	10356	1	15	3	0	0	0	1.04325	-18.03777	110	0	1.12	0.95;
	10357	1	79	6	0	0	0	1.08647	-8.12785	110	0	1.12	0.95;
	10358	1	296	58	0	0	0	1.12	-10.52462	110	0	1.12	0.95;
	10359	1	0	0	0	0	0	1.05447	-10.30796	110	0	1.12	0.95;
	10360	1	240	71	0	0	0	1.0541	-10.20427	110	0	1.12	0.95;
	10361	1	265	46.1	0	0	0	1.05135	-11.29547	110	0	1.12	0.95;
	10366	1	0	0	0	0	0	1.02163	-8.17421	22	0	1.12	0.95;
	10367	1	0	0	0	0	0	1.02164	-8.17421	110	0	1.12	0.95;
	10368	1	0	0	0	0	0	1.0553	-8.75319	110	0	1.12	0.95;
	10369	1	0	0	0	0	0	1.05529	-8.75319	22	0	1.12	0.95;
	1	1	0	0	0	0	1	1.10683	-0.3147	220	1	1.11	0.95;
	2	1	0	0	0	0	1	1.10783	1.34368	220	1	1.11	0.95;
	3	1	0	0	0	0	1	1.05771	-30.03567	220	1	1.11	0.95;
	4	1	0	0	0	0	1	1.05765	-30.04457	220	1	1.11	0.95;
	5	1	0	0	0	0	1	1.06886	-32.42333	220	1	1.11	0.95;
	6	1	0	0	0	0	1	1.07562	-5.79827	220	1	1.11	0.95;
	7	1	0	0	0	0	1	1.0756	-5.79861	220	1	1.11	0.95;
	8	1	0	0	0	0	1	1.0814	-18.53453	220	1	1.11	0.95;
	9	1	0	0	0	0	1	1.08169	-18.51761	220	1	1.11	0.95;
	10	1	0	0	0	0	1	1.08481	-22.24216	220	1	1.11	0.95;
	11	1	0	0	0	0	1	1.02329	-13.60481	400	1	1.05	0.95;
	12	1	0	0	0	0	1	1.02339	-13.59722	400	1	1.05	0.95;
	13	1	0	0	0	0	1	1.00602	-17.95869	400	1	1.05	0.95;
	14	1	0	0	0	0	1	1.03516	-18.26116	220	1	1.11	0.95;
	15	1	0	0	0	0	1	1.03539	-18.2591	220	1	1.11	0.95;
	16	1	0	0	0	0	1	1.03545	-18.24859	220	1	1.11	0.95;
	17	1	0	0	0	0	1	1.01167	-23.047	220	1	1.11	0.95;
	18	1	0	0	0	0	1	1.01817	-22.57535	220	1	1.11	0.95;
	19	1	0	0	0	0	1	1.02339	-11.87636	400	1	1.05	0.95;
	20	1	0	0	0	0	1	1.02345	-11.86651	400	1	1.05	0.95;
	21	1	0	0	0	0	1	1.00891	-21.65053	400	1	1.05	0.95;
	22	1	0	0	0	0	1	1.01162	-17.61066	400	1	1.05	0.95;
	23	1	0	0	0	0	1	1.01162	-17.61066	400	1	1.05	0.95;
	24	2	10	20.1	0	0	1	1.07767	-24.32403	220	1	1.11	0.95;
	25	2	10	20.1	0	0	1	1.0776	-24.32136	220	1	1.11	0.95;
	26	1	0	0	0	0	1	1.08577	-4.75886	220	1	1.11	0.95;
	27	1	0	0	0	0	1	1.0859	-4.77005	220	1	1.11	0.95;
	28	1	0	0	0	0	1	1.03847	-19.52171	220	1	1.11	0.95;
	29	1	0	0	0	0	1	1.03841	-19.52178	220	1	1.11	0.95;
	30	1	0	0	0	0	1	1.03437	-17.88953	220	1	1.11	0.95;
	31	1	0	0	0	0	1	1.0343	-17.90171	220	1	1.11	0.95;
	32	1	0	0	0	0	1	1.08456	-2.60422	220	1	1.11	0.95;
	33	1	0	0	0	0	1	1.08446	-2.62715	220	1	1.11	0.95;
	34	1	0	0	0	0	1	1.02081	-14.73024	400	1	1.05	0.95;
	35	1	0	0	0	0	1	1.02077	-14.73529	400	1	1.05	0.95;
	36	1	0	0	0	0	1	1.00827	-17.96045	400	1	1.05	0.95;
	37	3	48.7	86.2	0	0	1	1.11	0	220	1	1.11	0.95;
	38	2	54.5	89.9	0	0	1	1.11	1.64313	220	1	1.11	0.95;
	39	2	20.1	40.2	0	0	1	1.11	1.63704	220	1	1.11	0.95;
	40	2	60.3	120.6	0	0	1	1.04756	0.02164	400	1	1.05	0.95;
	41	2	60.3	120.6	0	0	1	1.04755	0.02748	400	1	1.05	0.95;
	42	1	0	0	0	0	1	1.02593	-19.15636	220	1	1.11	0.95;
	43	1	0	0	0	0	1	1.02582	-19.16305	220	1	1.11	0.95;
	44	1	0	0	0	0	1	1.05	-1.58839	400	1	1.05	0.95;
	45	1	0	0	0	0	1	1.04998	-1.59196	400	1	1.05	0.95;
	46	1	0	0	0	0	1	1.03111	-18.62695	220	1	1.11	0.95;
	47	1	0	0	0	0	1	1.06103	-7.84552	220	1	1.11	0.95;
	48	1	0	0	0	0	1	1.06104	-7.86017	220	1	1.11	0.95;
	49	1	0	0	0	0	1	1.09337	-12.42931	220	2	1.11	0.95;
	50	1	0	0	0	0	1	1.09039	-11.16452	220	2	1.11	0.95;
	51	1	0	0	0	0	1	1.10263	-9.84324	220	2	1.11	0.95;
	52	1	0	0	0	0	1	1.10261	-9.84649	220	2	1.11	0.95;
	53	1	0	0	0	0	1	1.07037	-14.43296	220	2	1.11	0.95;
	54	1	3.2	1	0	0	1	1.09978	-9.00933	220	2	1.11	0.95;
	55	1	0	0	0	0	1	1.09984	-9.00618	220	2	1.11	0.95;
	56	1	0	0	0	0	1	1.03565	-8.72229	400	2	1.05	0.95;
	57	2	26.1	60.3	0	0	1	1.10991	-10.73043	220	2	1.11	0.95;
	58	2	54.3	120.6	0	0	1	1.1097	-10.73757	220	2	1.11	0.95;
	59	2	13.1	30.1	0	0	1	1.11	-10.72656	220	2	1.11	0.95;
	60	2	26.1	50.2	0	0	1	1.05	-9.56951	400	2	1.05	0.95;
	61	2	26.1	50.2	0	0	1	1.04992	-9.56854	400	2	1.05	0.95;
	62	1	0	0	0	0	1	1.09416	-9.75714	220	2	1.11	0.95;
	63	1	0	0	0	0	1	1.04454	-9.88832	400	2	1.05	0.95;
	64	1	0	0	0	0	1	1.04453	-9.89003	400	2	1.05	0.95;
	65	1	0	0	0	0	1	1.04746	-10.98572	400	2	1.05	0.95;
	66	1	0	0	0	0	1	1.07714	-12.62676	220	2	1.11	0.95;
	67	1	0	0	0	0	1	1.07713	-12.62172	220	2	1.11	0.95;
	68	1	0	0	0	0	1	1.04521	-9.56117	400	2	1.05	0.95;
	69	1	0	0	0	0	1	1.0452	-9.55972	400	2	1.05	0.95;
	70	2	13.1	30.1	0	0	1	1.10739	-8.60021	220	2	1.11	0.95;
	71	2	13.1	30.1	0	0	1	1.10739	-8.60343	220	2	1.11	0.95;
	72	2	13.1	30.1	0	0	1	1.04287	-8.4031	400	2	1.05	0.95;
	73	2	26.1	60.3	0	0	1	1.0429	-8.40447	400	2	1.05	0.95;
	74	2	149.7	60.3	0	0	1	1.1043	-11.61975	220	2	1.11	0.95;
	75	1	29.1	10	0	0	1	1.10428	-11.62108	220	2	1.11	0.95;
	76	1	0	0	0	0	1	1.09619	-9.86894	220	2	1.11	0.95;
	77	1	0	0	0	0	1	1.0962	-9.86604	220	2	1.11	0.95;
	78	1	0	0	0	0	1	1.10133	-11.58367	220	2	1.11	0.95;
	79	1	0	0	0	0	1	1.10135	-11.58785	220	2	1.11	0.95;
	80	1	0	0	0	0	1	1.05	-9.02748	400	2	1.05	0.95;
	81	1	0	0	0	0	1	1.04998	-9.03312	400	2	1.05	0.95;
	82	1	0	0	0	0	1	1.09853	-11.11488	220	2	1.11	0.95;
	83	1	0	0	0	0	1	1.09948	-10.99534	220	2	1.11	0.95;
	84	1	0	0	0	0	1	1.07865	-11.42219	220	2	1.11	0.95;
	85	1	0	0	0	0	1	1.09226	-4.09446	220	3	1.11	0.95;
	86	1	9.4	0	0	0	1	1.09034	-8.35201	220	3	1.11	0.95;
	87	1	8.2	0	0	0	1	1.09035	-8.35113	220	3	1.11	0.95;
	88	1	0	0	0	0	1	1.09294	-3.5166	220	3	1.11	0.95;
	89	1	0	0	0	0	1	1.09307	-3.50133	220	3	1.11	0.95;
	90	1	0	0	0	0	1	1.10865	-2.97501	220	3	1.11	0.95;
	91	1	0	0	0	0	1	1.10867	-2.97695	220	3	1.11	0.95;
	92	1	0	0	0	0	1	1.06576	-6.13735	220	3	1.11	0.95;
	93	1	0	0	0	0	1	1.06553	-6.13858	220	3	1.11	0.95;
	94	2	28.1	70.3	0	0	1	1.10247	-2.50735	220	3	1.11	0.95;
	95	2	42.2	103.5	0	0	1	1.10442	-2.16364	220	3	1.11	0.95;
	96	1	7.7	-25	0	0	1	1.09045	-3.5891	220	3	1.11	0.95;
	97	1	0	0	0	0	1	1.09043	-3.58958	220	3	1.11	0.95;
	98	2	32.2	142.7	0	0	1	1.05	-3.80394	400	3	1.05	0.95;
	99	1	0	0	0	0	1	1.04993	-3.83168	400	3	1.05	0.95;
	100	1	0	0	0	0	1	1.06235	-5.1257	220	3	1.11	0.95;
	101	1	0	0	0	0	1	1.1067	-2.92815	220	3	1.11	0.95;
	102	1	0	0	0	0	1	1.10667	-2.92209	220	3	1.11	0.95;
	103	1	45.1	7.9	0	0	1	1.09504	-3.92095	220	3	1.11	0.95;
	104	1	0	0	0	0	1	1.09498	-3.92621	220	3	1.11	0.95;
	105	1	0	0	0	0	1	1.09907	-2.33167	220	3	1.11	0.95;
	106	1	0	0	0	0	1	1.09897	-2.33346	220	3	1.11	0.95;
	107	1	0	0	0	0	1	1.09932	-3.47111	220	3	1.11	0.95;
	108	1	0	0	0	0	1	1.09932	-3.4761	220	3	1.11	0.95;
	109	1	0	0	0	0	1	1.04336	-1.94993	400	3	1.05	0.95;
	110	1	0	0	0	0	1	1.04336	-1.95191	400	3	1.05	0.95;
	111	1	0	0	0	0	1	1.10343	-2.4016	220	3	1.11	0.95;
	112	1	0	0	0	0	1	1.10348	-2.40387	220	3	1.11	0.95;
	113	1	0	0	0	0	1	1.08227	-3.60332	220	3	1.11	0.95;
	114	1	0	0	0	0	1	1.08218	-3.61107	220	3	1.11	0.95;
	115	2	29.4	18.5	0	0	1	1.09646	-3.40562	220	3	1.11	0.95;
	116	1	0	0	0	0	1	1.09644	-3.41548	220	3	1.11	0.95;
	117	1	0	0	0	0	1	1.09039	-8.33168	220	3	1.11	0.95;
	118	1	0	0	0	0	1	1.09039	-8.32974	220	3	1.11	0.95;
	119	1	0	0	0	0	1	1.05297	-6.17162	220	3	1.11	0.95;
	120	1	0	0	0	0	1	1.05294	-6.16856	220	3	1.11	0.95;
	121	2	0	0	0	0	1	1.10918	-2.88774	220	3	1.11	0.95;
	122	2	10	44.2	0	0	1	1.10922	-2.89696	220	3	1.11	0.95;
	123	2	7	18.1	0	0	1	1.10624	-2.27844	220	3	1.11	0.95;
	124	2	8	21.1	0	0	1	1.10639	-2.27068	220	3	1.11	0.95;
	125	1	0	0	0	0	1	1.09264	-4.52218	220	3	1.11	0.95;
	126	1	71.5	7.9	0	0	1	1.09268	-4.53086	220	3	1.11	0.95;
	127	1	0	0	0	0	1	1.05869	-5.03006	220	3	1.11	0.95;
	128	1	0	0	0	0	1	1.0856	-3.25526	220	3	1.11	0.95;
	129	1	0	0	0	0	1	1.08564	-3.25685	220	3	1.11	0.95;
	130	1	0	0	0	0	1	1.0883	-3.61644	220	3	1.11	0.95;
	131	1	0	0	0	0	1	1.0884	-3.60774	220	3	1.11	0.95;
	132	1	0	0	0	0	1	1.04276	-5.24535	400	3	1.05	0.95;
	133	1	0	0	0	0	1	1.04276	-5.24535	400	3	1.05	0.95;
	134	2	0	0	0	0	1	1.09925	-2.98757	220	3	1.11	0.95;
	135	2	9	20.1	0	0	1	1.09923	-2.98863	220	3	1.11	0.95;
	136	2	6	15.1	0	0	1	1.07793	-4.29705	220	3	1.11	0.95;
	137	1	0	0	0	0	1	1.07795	-4.30702	220	3	1.11	0.95;
	138	1	0	0	0	0	1	1.04756	-8.85339	400	3	1.05	0.95;
	139	1	0	0	0	0	1	1.0476	-8.85201	400	3	1.05	0.95;
	140	1	0	0	0	0	1	1.05	-5.27699	400	3	1.05	0.95;
	141	1	0	0	0	0	1	1.05	-5.2733	400	3	1.05	0.95;
	142	1	0	0	0	0	1	1.05475	-5.25144	220	3	1.11	0.95;
	143	1	0	0	0	0	1	1.05482	-5.24859	220	3	1.11	0.95;
	144	2	18.3	15.9	0	0	1	1.10999	-1.94392	220	3	1.11	0.95;
	145	2	41	43.1	0	0	1	1.11	-1.92154	220	3	1.11	0.95;
	146	2	28.1	66.3	0	0	1	1.04293	-4.71535	400	3	1.05	0.95;
	147	1	0	0	0	0	1	1.04296	-4.71061	400	3	1.05	0.95;
	148	1	0	0	0	0	1	1.09367	-4.0284	220	3	1.11	0.95;
	149	1	0	0	0	0	1	1.09374	-4.02261	220	3	1.11	0.95;
	150	1	0	0	0	0	1	1.10588	-2.44486	220	3	1.11	0.95;
	151	1	0	0	0	0	1	1.09705	-3.66763	220	3	1.11	0.95;
	152	2	0	0	0	0	1	1.06579	-6.13758	220	3	1.11	0.95;
	153	2	0	0	0	0	1	1.06556	-6.13881	220	3	1.11	0.95;
	154	2	7.8	20.1	0	0	1	1.0916	-10.91902	220	4	1.11	0.95;
	155	2	8	20.1	0	0	1	1.0916	-10.92908	220	4	1.11	0.95;
	156	1	0	0	0	0	1	1.06325	-10.74057	220	4	1.11	0.95;
	157	1	0	0	0	0	1	1.06322	-10.74363	220	4	1.11	0.95;
	158	1	0	0	0	0	1	1.05493	-12.84056	220	4	1.11	0.95;
	159	1	0	0	0	0	1	1.08041	-8.69944	220	4	1.11	0.95;
	160	1	0	0	0	0	1	1.08032	-8.71058	220	4	1.11	0.95;
	161	1	0	0	0	0	1	1.02359	-8.98666	400	4	1.05	0.95;
	162	1	0	0	0	0	1	1.02356	-8.99236	400	4	1.05	0.95;
	163	1	0	0	0	0	1	1.03135	-23.38638	220	4	1.11	0.95;
	164	1	0	0	0	0	1	1.04195	-21.79824	220	4	1.11	0.95;
	165	1	0	0	0	0	1	1.04195	-21.79824	220	4	1.11	0.95;
	166	1	0	0	0	0	1	1.05789	-20.86338	220	4	1.11	0.95;
	167	1	0	0	0	0	1	1.05789	-20.86338	220	4	1.11	0.95;
	168	1	0	0	0	0	1	1.05438	-13.11633	220	4	1.11	0.95;
	169	2	0	0	0	0	1	1.08388	-15.43233	220	4	1.11	0.95;
	170	2	0	0	0	0	1	1.08387	-15.44225	220	4	1.11	0.95;
	171	1	0	0	0	0	1	1.11	-12.76059	220	4	1.11	0.95;
	172	2	12.1	30.1	0	0	1	1.06808	-19.35046	220	4	1.11	0.95;
	173	2	9.4	2.4	0	0	1	1.06807	-19.3607	220	4	1.11	0.95;
	174	2	12.1	30.1	0	0	1	1.03111	-20.95	400	4	1.05	0.95;
	175	2	24.1	60.3	0	0	1	1.03109	-20.94948	400	4	1.05	0.95;