function mpc = case6470rte
%CASE6470RTE  AC Power flow data for French system.
%   Please see CASEFORMAT for details on the case file format.
%
%   This case accurately represents the size and complexity of French
%   very high voltage and high voltage transmission network.
%   These data are snapshots of French VHV+HV grid in 2013.
%   These data can be used to validate mathematical methods and tools.
%   These data should NOT be used for operation
%   nor planning of the French or European grids.
%
%   When publishing results based on this data, please cite:
%
%     C. Josz, S. Fliscounakis, J. Maeght, and P. Panciatici, "AC Power Flow
%     Data in MATPOWER and QCQP Format: iTesla, RTE Snapshots, and PEGASE"
%     http://arxiv.org/abs/1603.01533
%
%   Contacts:
%     Cédric Josz, Stéphane Fliscounakis, Jean Maeght, Patrick Panciatici
%     firstname.lastname@rte-france.com
%     Réseau de Transport d'Electricité (French Transmission System Operator)
%     Département Expertise Système, Immeuble "Le Colbert"
%     9 rue de la Porte de Buc, 78000 Versailles Cedex, France
%
%   March 3rd, 2016

%   MATPOWER
%   Copyright (c) 2016 by Cédric Josz, Stéphane Fliscounakis, Jean Maeght,
%   and Patrick Panciatici
%   Licensed under the Creative Commons Attribution 4.0 International license,
%   http://creativecommons.org/licenses/by/4.0/

%% MATPOWER Case Format : Version 2
mpc.version = '2';

%%-----  Power Flow Data  -----%%
%% system MVA base
mpc.baseMVA = 100;

%% bus data
%	bus_i	type	Pd	Qd	Gs	Bs	area	Vm	Va	baseKV	zone	Vmax	Vmin
mpc.bus = [
	1	1	0	0	0	0	1	0.976135388	-12.9925873	45	1	1	0.888889;
	2	1	0	0	0	0	1	1.02642799	-12.9259868	63	1	1.06349	0.936508;
	3	1	12.5	-0.7	0	0	1	1.00503432	-13.9209286	63	1	1.07937	0.952381;
	4	1	44.7	-0.9	0	0	1	1.04420421	-12.9960661	90	1	1.08889	0.933333;
	5	1	12	0.1	0	0	1	1.01635584	-44.9251304	63	1	1.06349	0.952381;
	6	1	13	4.3	0	0	1	1.03382845	-21.1593539	63	1	1.07937	0.920635;
	7	1	1.2	0.8	0	0	1	1.04376781	-23.4151063	63	1	1.07937	0.920635;
	8	1	25.8	4.9	0	0	1	1.06137161	-9.10918487	225	1	1.08889	0.888889;
	9	1	12.9	0	0	0	1	1.04218491	-19.692127	63	1	1.06349	0.936508;
	10	1	0	0	0	0	1	1.03392009	-13.0599476	90	1	1.07778	0.922222;
	11	1	28.8	1.1	0	0	1	1.03391987	-13.0599451	90	1	1.07778	0.922222;
	12	1	0	0	0	0	1	1.01220507	1.47719466	63	1	1.07937	0.952381;
	13	1	0	0	0	0	1	1.05892219	-5.04317166	380	1	1.10263	1.05526;
	14	1	51.5	1.9	0	0	1	1.06276649	-23.9178904	90	1	1.07778	0.977778;
	15	1	0	0	0	0	1	1.00803207	-27.2648742	63	1	1.07937	0.920635;
	16	1	13.8	4.1	0	0	1	1.02765775	-30.1822336	63	1	1.07937	0.920635;
	17	1	13.1	0.2	0	0	1	1.04678283	-29.1807443	90	1	1.06667	0.977778;
	18	1	0	0	0	0	1	0.943683152	-6.22055638	45	1	1	0.888889;
	19	1	1	0	0	0	1	1.01840923	-21.4790742	63	1	1.06349	0.936508;
	20	1	0.9	-21.5	0	0	1	0.944675623	-6.25041794	45	1	1	0.888889;
	21	1	8.3	-3.3	0	0	1	1.04078363	-20.286675	90	1	1.06667	0.977778;
	22	1	18	1.1	0	0	1	1.01396605	-11.0956105	63	1	1.07937	0.952381;
	23	1	19.2	3.4	0	0	1	1.01094639	-10.1391831	63	1	1.06349	0.936508;
	24	1	16.1	-1.6	0	0	1	1.04095062	-12.3196454	90	1	1.11111	0.955556;
	25	1	59.9	-3.2	0	0	1	1.07238186	-8.42135007	90	1	1.1	0.944444;
	26	1	35.1	8.1	0	0	1	1.02301673	-21.9672988	90	1	1.06667	0.977778;
	27	1	0	0	0	0	1	1.06710622	-17.5980982	225	1	1.08444	1.00444;
	28	1	0.7	0.2	0	0	1	1.02281412	-19.085163	63	1	1.07937	0.952381;
	29	1	60.1	2.7	0	0	1	1.00764278	-24.8565374	63	1	1.06349	0.968254;
	30	1	33.5	-0.9	0	0	1	1.03465163	-13.1714919	90	1	1.08889	0.933333;
	31	1	0	0	0	0	1	1.02725645	-9.77254236	63	1	1.06349	0.936508;
	32	1	0	0	0	0	1	1.03648765	-4.82385724	150	1	1.10667	0.9;
	33	1	0	0	0	0	1	1.05453305	-7.49488734	225	1	1.08889	0.933333;
	34	1	0	0	0	0	1	1.05382682	-6.60576514	225	1	1.08889	0.933333;
	35	1	0	0	0	0	1	1.07407438	-6.15731397	380	1	1.10526	1.03947;
	36	1	0	0	0	0	1	1.07981196	-5.3255914	380	1	1.10526	1.03947;
	37	1	3.2	4.3	0	0	1	1.00780047	-25.6001306	63	1	1.07937	0.920635;
	38	1	6	-2	0	0	1	1.05045129	-12.5625758	63	1	1.09524	0.936508;
	39	1	41	-3.3	0	0	1	1.03860534	-32.8237834	90	1	1.07778	0.977778;
	40	1	32.6	0.5	0	0	1	1.05927182	-22.0803285	90	1	1.07778	0.977778;
	41	1	0	0	0	0	1	1.07994118	-18.1118321	225	1	1.08889	1.00444;
	42	1	0	0	0	0	1	1.12051301	5.61827836	63	1	1.13259	0.952381;
	43	1	3.6	2	0	0	1	1.04594618	-18.1350668	90	1	1.07778	0.977778;
	44	1	13	-0.7	0	0	1	1.02400675	-45.3164455	63	1	1.06349	0.952381;
	45	1	3.9	1.7	0	0	1	1.00835368	-29.0294852	90	1	1.06667	0.977778;
	46	1	0	0	0	0	1	1.012435	-16.8917768	63	1	1.06349	0.936508;
	47	2	0	0	0	0	1	1.012	-14.645547	63	1	1.06349	0.936508;
	48	1	36.5	3.4	0	0	1	1.03402321	-13.0587867	90	1	1.07778	0.922222;
	49	1	8.8	-1.7	0	0	1	1.01826244	-16.2568862	63	1	1.06349	0.936508;
	50	1	0	0	0	0	1	1.06347625	-15.8365877	63	1	1.07012	0.936508;
	51	1	0	0	0	0	1	1.05402062	-11.3483204	225	1	1.08889	0.933333;
	52	1	5	2.4	0	0	1	1.03592726	-30.7614811	90	1	1.06667	0.977778;
	53	1	2.5	-0.5	0	0	1	1.01729743	-17.5396193	63	1	1.04762	0.952381;
	54	1	-0.4	-0	0	0	1	1.03781665	-15.8046832	90	1	1.06667	0.977778;
	55	1	37.6	6.7	0	0	1	1.06961297	-18.9138109	225	1	1.08889	1.00444;
	56	1	52.1	13.5	0	0	1	1.07717063	-15.4534489	225	1	1.08889	1.00444;
	57	2	0	0	0	0	1	1.051	-23.8130179	63	1	1.07937	0.920635;
	58	1	130.6	30.1	0	0	1	1.06941541	-18.9307534	225	1	1.08889	1.00444;
	59	1	5.1	1.3	0	0	1	1.01246439	-11.9419701	63	1	1.07937	0.952381;
	60	1	0	0	0	0	1	1.02630951	-5.72230685	63	1	1.07937	0.952381;
	61	1	39.5	9.7	0	0	1	1.03149101	-8.27970763	63	1	1.07937	0.952381;
	62	1	0	0	0	0	1	1.01212852	-6.03185941	63	1	1.07937	0.952381;
	63	1	15.8	2	0	0	1	1.01100284	1.57582423	63	1	1.07937	0.952381;
	64	1	62.4	1	0	0	1	1.07394793	-6.81249347	225	1	1.08889	0.888889;
	65	1	11	2.8	0	0	1	1.04323714	-8.83232685	63	1	1.07937	0.952381;
	66	1	13.2	-7.9	0	0	1	1.02766848	-25.721717	63	1	1.06349	0.936508;
	67	1	0	0	0	0	1	1.04382543	-19.3568303	63	1	1.07937	0.920635;
	68	1	48.1	-0.1	0	0	1	1.01281042	-16.3819581	63	1	1.06349	0.936508;
	69	1	19.3	-2.7	0	0	1	1.04103403	-49.3963046	63	1	1.06349	0.952381;
	70	1	10.6	2.7	0	0	1	1.01492751	2.12856808	63	1	1.07937	0.952381;
	71	1	62.4	14.9	0	0	1	1.02703162	-19.7214799	63	1	1.04762	0.952381;
	72	1	0	0	0	0	1	1.08833147	-12.1292789	225	1	1.09027	1.00444;
	73	1	0	0	0	0	1	1.08830871	-12.1298816	225	1	1.09025	1.00444;
	74	1	50.4	-9.9	0	0	1	1.07421562	-6.6908321	225	1	1.08889	0.888889;
	75	1	22.3	1.8	0	0	1	1.05912762	-15.2272137	90	1	1.0673	0.977778;
	76	1	2.6	-0.4	0	0	1	1.07654404	4.81180688	225	1	1.08923	0.986667;
	77	1	36.8	-0.4	0	0	1	1.01721738	-16.1431001	63	1	1.06349	0.936508;
	78	1	0	0	0	0	1	1.01713501	-24.7944396	63	1	1.07937	0.920635;
	79	1	0	0	0	0	1	1.0233287	-15.8525121	63	1	1.04762	0.952381;
	80	1	32.3	7.3	0	0	1	1.07788234	-15.7121296	225	1	1.08889	1.00444;
	81	1	36.3	9.9	0	0	1	1.07789352	-15.712247	225	1	1.08889	1.00444;
	82	1	11.7	1.6	0	0	1	1.01680665	-17.7544069	63	1	1.06349	0.936508;
	83	1	77.5	26.4	0	0	1	1.06117126	-18.1202089	225	1	1.08889	1.00444;
	84	1	-1.6	-1.2	0	0	1	1.01460966	-12.8551684	63	1	1.06349	0.936508;
	85	1	2.1	-2.1	0	0	1	1.03363532	-18.6243809	63	1	1.06349	0.936508;
	86	1	48.9	3.6	0	0	1	1.02064907	-38.6021117	90	1	1.06667	0.977778;
	87	1	0	0	0	0	1	1.0187645	1.31447041	63	1	1.07937	0.952381;
	88	1	13.5	-0.1	0	0	1	1.01592598	-21.6956546	63	1	1.06349	0.936508;
	89	1	25.4	0.8	0	0	1	1.0379702	-20.8685881	90	1	1.07778	0.977778;
	90	1	0.4	-1.4	0	0	1	0.94224878	-7.00763458	45	1	1	0.888889;
	91	1	1	0	0	0	1	0.943074714	-6.30480653	45	1	1	0.888889;
	92	1	28.6	3.2	0	0	1	1.00978629	-20.3740289	63	1	1.06349	0.968254;
	93	1	2.1	-2.5	0	0	1	0.958656574	-8.71727433	45	1	1	0.888889;
	94	1	17.5	-4.3	0	0	1	1.04379161	-19.7217298	90	1	1.06667	0.977778;
	95	1	46.5	7.6	0	0	1	1.0312211	-30.4840468	90	1	1.06667	0.977778;
	96	1	1.5	-0.7	0	0	1	1.03788872	-11.0788409	63	1	1.06349	0.936508;
	97	1	56.4	0.9	0	0	1	1.06437655	-25.7421539	63	1	1.07937	0.920635;
	98	1	7.4	-1.3	0	0	1	1.03837053	-15.4142215	63	1	1.07937	0.952381;
	99	1	26.9	3.1	0	0	1	1.03969161	-7.84708686	63	1	1.07937	0.952381;
	100	1	53.3	8.6	0	0	1	1.00974165	-16.7738896	63	1	1.06349	0.936508;
	101	1	17.7	0.5	0	0	1	1.0068471	-13.2748505	63	1	1.06349	0.936508;
	102	2	0	0	0	0	1	1.026	-20.4664045	63	1	1.07937	0.952381;
	103	1	18	-1.1	0	0	1	1.02700008	-6.46512627	63	1	1.07937	0.952381;
	104	1	0	0	0	0	1	1.06764508	-3.66034483	225	1	1.08889	0.986667;
	105	1	35.5	1	0	0	1	1.05574625	-6.19441787	225	1	1.08889	0.888889;
	106	1	49.8	7.5	0	0	1	1.0549998	-10.3125909	90	1	1.1	0.944444;
	107	1	77.6	8.1	0	0	1	1.05344295	-27.9027225	225	1	1.08444	1.00889;
	108	1	12.6	-0.4	0	0	1	1.06089799	-15.8485362	90	1	1.07778	0.977778;
	109	1	68.7	10.9	0	0	1	1.03797039	-14.4512355	63	1	1.06349	0.936508;
	110	1	0	0	0	0	1	1.02483778	-10.3393883	225	1	1.08889	0.933333;
	111	1	36.5	-7.9	0	0	1	1.00464656	-23.2310562	63	1	1.06349	0.968254;
	112	1	0	0	0	0	1	1.03104172	-19.4769398	63	1	1.04762	0.952381;
	113	1	0	0	0	0	1	1.07137239	-16.7086828	225	1	1.08889	1.00444;
	114	1	10.8	-0	0	0	1	1.04131933	-14.515794	63	1	1.06349	0.936508;
	115	1	0	0	0	0	1	1.05906621	-5.0444808	380	1	1.10526	1.05263;
	116	1	0	0	0	0	1	1.05893137	-5.04325504	380	1	1.10526	1.05263;
	117	1	15.4	-1	0	0	1	1.01177151	-18.5010626	63	1	1.07937	0.952381;
	118	1	2	0.8	0	0	1	1.06140338	-14.9568759	90	1	1.06958	0.977778;
	119	1	37.2	5.3	0	0	1	1.02092431	-10.2131994	63	1	1.06349	0.936508;
	120	1	17	-3.2	0	0	1	1.01794152	-9.19529036	63	1	1.06349	0.936508;
	121	1	17.6	3.9	0	0	1	1.02798357	-24.462783	63	1	1.07937	0.920635;
	122	2	0	0	0	0	1	1.026	-7.07848147	63	1	1.07937	0.952381;
	123	1	9	2.6	0	0	1	1.02435037	-7.22045701	63	1	1.07937	0.952381;
	124	1	8	-0.9	0	0	1	1.03707848	-25.0946664	90	1	1.06667	0.977778;
	125	1	10.5	-0.5	0	0	1	1.03689507	-9.8309822	63	1	1.07937	0.952381;
	126	1	0.3	-0.1	0	0	1	1.02949319	-19.3051119	63	1	1.06349	0.936508;
	127	1	7.8	1.5	0	0	1	1.03397146	-19.3369693	63	1	1.04762	0.952381;
	128	1	11.8	7.6	0	0	1	1.02461147	-12.4220533	63	1	1.06349	0.968254;
	129	1	16.7	11.8	0	0	1	1.02325264	-10.6875588	63	1	1.06349	0.968254;
	130	1	0	0	0	0	1	1.04822415	-10.3292151	225	1	1.08444	1.00889;
	131	1	103	13.6	0	0	1	1.04604879	-19.0300309	225	1	1.08444	1.00889;
	132	2	11.5	0	0	0	1	1.065	-22.1212095	90	1	1.07778	0.922222;
	133	1	2.1	0.5	0	0	1	1.01877743	-19.1629109	63	1	1.04762	0.952381;
	134	1	83.5	23.6	0	0	1	1.06237023	-16.5704975	225	1	1.08889	1.00444;
	135	1	0	0	0	0	1	1.07000739	-18.7730983	225	1	1.08889	1.00444;
	136	1	21.9	-0.2	0	0	1	1.04427034	-29.9688968	90	1	1.07778	0.977778;
	137	2	9.6	-4.4	0	0	1	1.032	-17.2080894	63	1	1.06349	0.968254;
	138	1	0	0	0	0	1	1.03902059	-14.7661854	150	1	1.08	0.966667;
	139	1	15.7	2.2	0	0	1	1.05095521	-19.5598296	63	1	1.07937	0.920635;
	140	1	0	0	0	80	1	1.08235205	-16.4504327	225	1	1.08889	1;
	141	1	0	0	0	0	1	1.08918012	-13.1901619	380	1	1.10526	1.05263;
	142	1	14.8	5.8	0	0	1	1.01633355	-11.5272029	63	1	1.07937	0.952381;
	143	1	0	0	0	0	1	1.06497066	-7.36988358	225	1	1.08889	0.986667;
	144	1	23.3	-10.3	0	0	1	1.04710595	-10.8088189	90	1	1.11111	0.955556;
	145	1	27.6	5.9	0	0	1	1.07498756	-6.54824762	225	1	1.08889	0.968889;
	146	1	0	0	0	0	1	1.082892	-4.02229346	380	1	1.10526	1;
	147	1	29	5.5	0	0	1	1.03903903	-15.2683972	63	1	1.06349	0.936508;
	148	1	6.7	2.4	0	0	1	1.02578801	-13.8079977	63	1	1.06349	0.936508;
	149	1	17.9	6.1	0	0	1	1.04300695	-30.1906078	90	1	1.06667	0.977778;
	150	1	44.5	6.4	0	0	1	1.02466218	-10.2265779	63	1	1.06349	0.936508;
	151	1	0	0	0	0	1	0.988179896	-26.921708	63	1	1.06349	0.968254;
	152	1	38.3	8.8	0	7.7	1	0.988026042	-25.6502451	63	1	1.06349	0.968254;
	153	1	23.2	-2.6	0	0	1	1.03360067	-13.5219696	63	1	1.06349	0.936508;
	154	1	0	0	0	0	1	1.06485541	-9.84131996	225	1	1.08889	0.933333;
	155	2	0	0	0	0	1	0.973059153	-24.3963974	63	1	1.07937	0.920635;
	156	1	0	0	0	0	1	0.988140868	-26.9246626	63	1	1.06349	0.968254;
	157	1	0.3	3.1	0	0	1	0.898621813	-8.80299203	45	1	1	0.888889;
	158	2	0	0	0	0	1	0.947	-10.3100044	45	1	1	0.888889;
	159	1	0	0	0	0	1	1.00924769	-12.5289984	63	1	1.06349	0.936508;
	160	1	35.2	5.6	0	0	1	1.06355817	-4.61684596	225	1	1.08889	0.888889;
	161	1	38.2	8.7	0	0	1	1.06341169	-4.62290462	225	1	1.08889	0.888889;
	162	1	0.7	-1.4	0	0	1	1.02526511	-18.2541106	90	1	1.06667	0.977778;
	163	1	0	0	0	0	1	1.02136691	-6.22432606	63	1	1.07937	0.952381;
	164	1	0	0	0	0	1	1.02136691	-6.22432606	63	1	1.07937	0.952381;
	165	1	16.7	9.2	0	0	1	1.06958649	-25.1648491	20	1	1.15	0.8;
	166	1	10.1	2.4	0	0	1	1.04218915	-29.5709908	90	1	1.06667	0.977778;
	167	1	13.6	0.6	0	0	1	1.03463882	-29.8876265	90	1	1.06667	0.977778;
	168	1	0	0	0	0	1	1.06967074	-25.1582215	225	1	1.08444	1.00444;
	169	1	10.8	-1	0	0	1	1.02635835	-27.5129079	90	1	1.06667	0.977778;
	170	1	70.4	11.6	0	0	1	1.04989447	-21.25518	90	1	1.07778	0.977778;
	171	1	26.5	-0.4	0	0	1	1.04571799	-23.921678	90	1	1.07778	0.977778;
	172	1	0	0	0	0	1	1.06465854	-19.8892662	225	1	1.08889	1.00444;
	173	1	27.7	8.5	0	0	1	1.06990619	-6.73343649	90	1	1.08889	0.933333;
	174	1	47.4	4.6	0	0	1	1.06578124	-11.2728218	90	1	1.11111	0.955556;
	175	1	0	0	0	0	1	1.00313316	-23.0001881	63	1	1.07937	0.920635;
	176	1	0	0	0	0	1	1.01288102	-20.7011782	63	1	1.07937	0.920635;
	177	2	0	0	0	0	1	1.07314468	-17.8713404	150	1	1.1	0.9;
	178	1	0	0	0	0	1	1.0830725	-16.2722384	225	1	1.08889	1.00444;
	179	1	0	0	0	0	1	1.08307272	-16.2722396	225	1	1.08889	1.00444;
	180	1	0	0	0	-32	1	1.00374216	-19.4961422	20	1	1.15	0.8;
	181	1	0	0	0	-32	1	1.02635302	-19.4481365	20	1	1.15	0.8;
	182	1	0	0	0	0	1	1.03407596	-19.3298098	63	1	1.04762	0.952381;
	183	1	0	0	0	0	1	1.0830712	-16.2722314	225	1	1.08889	1.00444;
	184	1	12.9	-4.6	0	0	1	1.04803579	-26.3070703	63	1	1.07937	0.920635;
	185	1	16	3.1	0	0	1	1.03138099	-10.647407	63	1	1.06349	0.936508;
	186	1	4.8	-0.4	0	0	1	1.01592709	-15.4110518	63	1	1.07937	0.952381;
	187	1	5	1.4	0	0	1	1.06702478	-18.5901086	90	1	1.07778	0.977778;
	188	1	28.7	4	0	0	1	1.00764362	-12.3640743	63	1	1.07937	0.952381;
	189	1	1.1	0.3	0	0	1	1.02544485	-17.5610238	90	1	1.06667	0.977778;
	190	2	0	0	0	0	1	1.02526044	-24.3142213	63	1	1.07937	0.920635;
	191	1	16.2	1.6	0	0	1	1.02786229	-23.8127607	63	1	1.07937	0.920635;
	192	2	0	0	0	0	1	0.948167592	-8.50646106	45	1	1	0.888889;
	193	1	13.8	-0.3	0	0	1	1.02865291	-27.5568671	90	1	1.06667	0.977778;
	194	1	7.4	-1.5	0	0	1	1.04988634	-24.3324955	63	1	1.07937	0.920635;
	195	1	7.9	4.8	0	0	1	1.07074605	-17.1657151	225	1	1.08889	1.00444;
	196	2	1	-0.3	0	0	1	1.037	-25.5274656	63	1	1.07937	0.920635;
	197	1	0	0	0	0	1	1.08972445	-16.6406808	63	1	1.09837	0.952381;
	198	1	0	0	0	0	1	1.08972593	-16.6407234	63	1	1.09837	0.952381;
	199	1	24.4	1.2	0	0	1	1.01120807	-29.4239285	63	1	1.07937	0.920635;
	200	1	9.3	-2.7	0	0	1	1.02943998	-25.1599728	63	1	1.07937	0.920635;
	201	1	12.8	1.9	0	0	1	1.03139799	-35.5969945	90	1	1.06667	0.977778;
	202	1	0	0	0	0	1	1.07085025	-23.7657727	225	1	1.08889	1;
	203	1	73.3	24.6	0	0	1	1.05163856	-6.8737545	225	1	1.08889	0.888889;
	204	1	41.8	1.4	0	0	1	0.994858112	-29.3610009	63	1	1.06349	0.968254;
	205	1	17.5	2.5	0	0	1	1.06135965	-3.60703516	90	1	1.1	0.944444;
	206	1	0	0	0	0	1	1.07368512	-0.369510092	225	1	1.08889	0.968889;
	207	1	0	0	0	0	1	1.08646264	3.11960456	380	1	1.10526	1;
	208	1	50.1	6.8	0	0	1	1.00551982	-27.1560447	63	1	1.06349	0.968254;
	209	1	32.9	4.1	0	0	1	0.996089073	-13.604839	63	1	1.06349	0.968254;
	210	1	14.4	-1.6	0	0	1	1.04473461	-16.5361924	90	1	1.07778	0.977778;
	211	1	2.9	0.1	0	0	1	1.02030808	-21.6278906	63	1	1.06349	0.968254;
	212	1	40.8	5.5	0	0	1	0.99918526	-18.5691164	63	1	1.06349	0.968254;
	213	1	31.8	12.2	0	0	1	0.99913751	-18.4326103	63	1	1.06349	0.968254;
	214	1	0	0	0	0	1	1.04375786	-18.3663477	225	1	1.08444	1.00889;
	215	1	0	0	0	0	1	1.04366977	-18.3541162	225	1	1.08444	1.00889;
	216	1	37.5	3.1	0	30.4	1	1.04835313	-26.2018173	90	1	1.07778	0.977778;
	217	1	0	0	0	0	1	1.06769262	-22.848794	225	1	1.08889	1.00444;
	218	1	20.7	-2.4	0	0	1	1.00652687	-12.1913988	63	1	1.06349	0.952381;
	219	1	25	3.4	0	0	1	1.01424905	-26.0740352	90	1	1.06667	0.977778;
	220	1	1.6	-0.1	0	0	1	1.0377039	-15.8150164	90	1	1.06667	0.977778;
	221	1	10.4	-3.7	0	0	1	1.03667419	-26.4442522	90	1	1.06667	0.977778;
	222	1	11	1.5	0	0	1	1.0189382	1.74743884	63	1	1.07937	0.952381;
	223	1	14.3	-8.5	0	0	1	1.03189674	-19.4748379	63	1	1.06349	0.936508;
	224	1	0	0	0	0	1	1.0837059	-16.6249126	225	1	1.08902	0.933333;
	225	1	40.8	2	0	0	1	1.01333387	-25.7515305	63	1	1.07937	0.920635;
	226	2	0	0	0	0	1	1.07309576	-17.8703683	150	1	1.1	0.9;
	227	1	37.6	6	0	0	1	1.03995153	-19.6320469	225	1	1.08444	1.00889;
	228	1	38.6	44	0	0	1	1.03933453	-19.6265917	225	1	1.08444	1.00889;
	229	1	4	0.2	0	0	1	1.02467633	-48.7977257	63	1	1.06349	0.952381;
	230	1	9.9	-2	0	0	1	1.02225944	-49.6988522	63	1	1.06349	0.952381;
	231	1	12.4	-5.7	0	0	1	1.06006545	-21.8894442	63	1	1.07937	0.920635;
	232	1	0	0	0	0	1	1.04175434	-19.4736199	225	1	1.08889	0.977778;
	233	1	6	-2.4	0	0	1	1.03514665	-26.2323818	90	1	1.06667	0.977778;
	234	1	6.4	1	0	0	1	1.03777101	-8.89348747	90	1	1.08889	0.933333;
	235	1	0	0	0	0	1	1.05029335	-7.37307889	20	1	1.15	0.8;
	236	1	23.9	8.5	0	0	1	1.05029335	-7.37307889	90	1	1.08889	0.933333;
	237	1	13.7	3.1	0	0	1	1.06350269	-4.00673903	225	1	1.08889	0.888889;
	238	1	26.6	1.5	0	0	1	1.04591592	-11.7879792	90	1	1.07778	0.922222;
	239	1	46.2	6.8	0	0	1	1.01635278	-12.8174626	63	1	1.06349	0.936508;
	240	1	21.4	-0.9	0	0	1	1.02086166	-21.4959932	90	1	1.06667	0.977778;
	241	1	52.1	3.6	0	0	1	1.01280646	-54.221137	63	1	1.06349	0.952381;
	242	1	41.4	8.3	0	0	1	1.01720072	-24.7905577	63	1	1.07937	0.920635;
	243	1	45.4	4.4	0	0	1	1.02705199	-25.3257645	90	1	1.07778	0.922222;
	244	1	45.5	4.8	0	0	1	1.0042467	-26.4545083	63	1	1.06349	0.968254;
	245	1	26.7	-3.4	0	0	1	1.01387389	-28.2337774	63	1	1.07937	0.920635;
	246	1	53.1	3.3	0	0	1	1.04504153	-23.4298099	90	1	1.07778	0.922222;
	247	1	12.8	-2.1	0	0	1	1.02807369	-25.6668099	63	1	1.07937	0.920635;
	248	2	12.3	4.9	0	0	1	0.99867764	-6.62716414	63	1	1.06349	0.936508;
	249	1	0	0	0	0	1	1.05286244	-5.19345951	225	1	1.08889	0.933333;
	250	1	28.9	9.4	0	0	1	1.07676311	-15.6598677	225	1	1.08889	1.00444;
	251	1	24	-5.3	0	0	1	1.03892461	-29.524035	63	1	1.07937	0.920635;
	252	1	23.5	-7.3	0	0	1	1.01034866	-18.924385	63	1	1.07937	0.952381;
	253	1	6.1	-0	0	0	1	1.02471069	-28.569048	90	1	1.06667	0.977778;
	254	1	9.5	-1.6	0	0	1	1.02658308	-18.1724718	90	1	1.06667	0.977778;
	255	1	48.5	6.8	0	0	1	1.03818268	-15.7051442	63	1	1.07937	0.952381;
	256	1	16.9	0.4	0	0	1	1.02704	-18.7226235	63	1	1.07937	0.952381;
	257	1	6.9	-1.4	0	0	1	1.01727476	-21.332965	63	1	1.06349	0.936508;
	258	2	4.7	0	0	0	1	1.03168787	-23.9264389	63	1	1.07937	0.920635;
	259	1	0	0	0	0	1	1.07055072	-23.8012338	225	1	1.08889	1;
	260	2	-0	0	0	0	1	1.071	-18.4891264	90	1	1.07778	0.922222;
	261	1	29.7	1.1	0	0	1	1.04487603	-13.8803978	63	1	1.07937	0.952381;
	262	1	0	0	0	0	1	1.07518406	-11.9469181	225	1	1.08889	0.986667;
	263	2	0	0	0	0	1	0.998	-30.131873	63	1	1.07937	0.920635;
	264	1	0	0	0	80	1	1.0706298	-4.32754665	225	1	1.08889	0.888889;
	265	1	0	0	0	0	1	1.05733959	-5.73407247	225	1	1.08889	0.888889;
	266	1	0	0	0	0	1	1.06916517	-1.21141707	380	1	1.10526	1.01316;
	267	1	0	0	0	0	1	1.01227765	-18.3857952	63	1	1.04762	0.952381;
	268	1	26.3	6.4	0	0	1	1.07401812	-15.5405893	225	1	1.08889	1.00444;
	269	1	57.3	10.1	0	0	1	1.07717983	-15.8976728	225	1	1.08889	1.00444;
	270	1	10.5	9.5	0	0	1	0.98529321	-20.2268963	63	1	1.07937	0.920635;
	271	1	22.7	2.7	0	0	1	0.996415925	-30.2769741	63	1	1.07937	0.920635;
	272	1	0	0	0	0	1	1.04387439	-12.0049937	225	1	1.08889	0.977778;
	273	1	0	0	0	0	1	1.04398529	-12.0062584	225	1	1.08889	0.977778;
	274	1	6.7	7.7	0	0	1	1.02078336	-16.3650972	63	1	1.06349	0.968254;
	275	1	55.4	0.8	0	0	1	1.04159672	-12.8903715	225	1	1.08444	1.00889;
	276	1	43.8	8.2	0	0	1	1.06468115	-11.0820783	90	1	1.1	0.944444;
	277	1	0	0	0	0	1	1.07474287	-21.358818	225	1	1.08444	1.00444;
	278	1	0	0	0	0	1	1.08484509	-15.6367446	380	1	1.10263	1.04211;
	279	1	1.8	4.2	0	0	1	1.03239756	-24.4220317	90	1	1.06667	0.977778;
	280	1	-1.5	4.3	0	0	1	1.07449623	-21.415486	225	1	1.08444	1.00444;
	281	1	10	-2.1	0	0	1	1.02169554	-23.0416736	63	1	1.06349	0.936508;
	282	1	48	11.3	0	0	1	1.04952963	-27.6577956	90	1	1.07778	0.977778;
	283	1	12.8	0.9	0	0	1	1.01615325	-12.1675445	63	1	1.07937	0.952381;
	284	2	0	0	0	0	1	0.998678131	-6.62717569	63	1	1.06349	0.936508;
	285	1	10.8	0.2	0	0	1	1.03014003	-30.7339585	90	1	1.06667	0.977778;
	286	1	14.7	3.5	0	0	1	1.01272902	1.29348937	63	1	1.07937	0.952381;
	287	1	1.4	5	0	0	1	1.07764865	-15.3184269	225	1	1.08889	1.00444;
	288	1	19.4	7	0	0	1	1.07759057	-15.3275679	225	1	1.08889	1.00444;
	289	1	25.8	-4.9	0	0	1	1.04413826	-19.6210841	90	1	1.06667	0.977778;
	290	1	33.5	-2.7	0	0	1	1.02789867	-27.9986301	90	1	1.06667	0.977778;
	291	1	43.4	2.2	0	0	1	1.07429487	2.56885878	225	1	1.08889	0.888889;
	292	1	7.2	2.9	0	0	1	1.0774287	-6.47587556	90	1	1.11111	0.955556;
	293	1	15.3	-1.9	0	0	1	1.01974454	-26.3827007	63	1	1.07937	0.920635;
	294	1	0	0.4	0	0	1	1.01655769	-14.8975095	63	1	1.06349	0.936508;
	295	1	42	5.2	0	0	1	1.01657002	-14.8978891	63	1	1.06349	0.936508;
	296	1	0	-0.9	0	0	1	1.01624692	-13.8570441	63	1	1.07937	0.952381;
	297	1	19.9	2.7	0	0	1	1.06237719	-6.9458869	225	1	1.08889	0.888889;
	298	1	7.7	-0.1	0	0	1	1.01340032	-17.4418694	63	1	1.07937	0.952381;
	299	1	5	0.5	0	0	1	0.992704734	-20.7778211	63	1	1.06349	0.936508;
	300	1	10	0	0	0	1	1.00249415	-12.4867348	63	1	1.06349	0.936508;
	301	1	0	0.1	0	0	1	1.07060618	-1.56075935	90	1	1.11111	0.955556;
	302	1	53.3	18.6	0	0	1	1.07015	1.16691182	225	1	1.08889	0.888889;
	303	1	2.9	0.4	0	0	1	1.00078629	-13.1575397	63	1	1.06349	0.968254;
	304	1	12.3	2	0	0	1	1.01807893	-11.6294269	63	1	1.06349	0.936508;
	305	1	33.3	6.1	0	0	1	1.002367	-30.3816446	63	1	1.07937	0.920635;
	306	1	30.8	-4.2	0	0	1	0.995920621	-24.3304234	63	1	1.06349	0.968254;
	307	2	0	0	0	0	1	1.038	-17.0089556	63	1	1.06349	0.936508;
	308	1	14	-0.3	0	0	1	1.01574032	-12.3189387	63	1	1.07937	0.952381;
	309	1	21.3	-2.9	0	0	1	1.01724013	-36.2906052	90	1	1.06667	0.977778;
	310	1	0.5	-0	0	0	1	1.01840116	-28.7641929	63	1	1.07937	0.920635;
	311	1	9	2.5	0	0	1	1.02285778	-28.6151816	63	1	1.06349	0.968254;
	312	1	14	4.5	0	0	1	1.02312291	-28.637789	63	1	1.06349	0.968254;
	313	1	0.7	-0.3	0	0	1	1.01859078	-28.6453999	90	1	1.06667	0.977778;
	314	1	8	-2.5	0	0	1	1.03107569	-6.00068844	90	1	1.07778	0.922222;
	315	1	28.8	2.9	0	0	1	1.03844683	-21.0395499	63	1	1.07937	0.920635;
	316	1	0	0	0	0	1	1.06806644	-17.4699646	225	1	1.08889	1;
	317	1	21.2	-1.2	0	0	1	1.06603789	-18.7797964	90	1	1.07778	0.977778;
	318	1	32.2	7	0	0	1	1.01167843	-27.2163282	63	1	1.07937	0.920635;
	319	2	3	0	0	0	1	1.05005854	-24.6049022	63	1	1.07937	0.920635;
	320	1	13.5	4.9	0	0	1	0.998751652	-20.579866	63	1	1.04762	0.952381;
	321	2	0	0	0	0	1	1.042	-27.8101289	63	1	1.07937	0.920635;
	322	1	31.1	4	0	0	1	1.06421298	-8.84839978	90	1	1.1	0.944444;
	323	1	0	0	0	0	1	1.03162328	-25.1609147	63	1	1.07937	0.920635;
	324	1	0	0	0	0	1	1.0316332	-15.5042849	225	1	1.08889	1;
	325	1	0	0	0	0	1	1.07019351	-15.5308225	380	1	1.10526	1.05263;
	326	1	22	3.3	0	0	1	1.02464124	-13.1794038	63	1	1.06349	0.936508;
	327	2	17.1	5.7	0	0	1	1.02177606	-13.896882	63	1	1.06349	0.936508;
	328	1	1.1	20.6	0	0	1	1.02507743	-21.0960187	63	1	1.07937	0.920635;
	329	1	0	0	0	0	1	1.04443663	-18.3600141	225	1	1.08889	1;
	330	1	31.8	2	0	0	1	1.00546956	-23.7172325	63	1	1.07937	0.920635;
	331	1	58.7	0.1	0	0	1	1.06169618	-9.66462723	90	1	1.1	0.944444;
	332	1	71.1	-5.3	0	0	1	1.04288218	-24.6990458	63	1	1.07937	0.920635;
	333	1	0	0	0	0	1	1.06693583	-21.0391024	225	1	1.08889	1;
	334	2	9.2	0.5	0	0	1	1.02680339	-30.5115154	63	1	1.06349	0.968254;
	335	2	0	0	0	0	1	1.037	-25.7229754	150	1	1.08	0.966667;
	336	1	7.9	-3.6	0	0	1	1.04977896	-47.4190686	63	1	1.06349	0.952381;
	337	1	17	7	0	0	1	1.01937431	-18.7018012	63	1	1.06349	0.936508;
	338	2	0.7	0	0	0	1	1.013	-24.3798319	63	1	1.07937	0.920635;
	339	1	13.2	-1.3	0	0	1	1.03666453	-29.2693937	63	1	1.07937	0.920635;
	340	2	0	0	0	0	1	1.03933002	-25.271613	63	1	1.07937	0.920635;
	341	1	16.5	3.4	0	0	1	1.02658256	-27.6181115	63	1	1.07937	0.920635;
	342	1	21.6	-1.4	0	0	1	1.03418978	-25.8853827	90	1	1.06667	0.977778;
	343	1	7	-11.2	0	0	1	1.06804438	-25.591784	63	1	1.07937	0.920635;
	344	1	9.4	-3.3	0	0	1	1.03215534	-9.27766752	63	1	1.07937	0.952381;
	345	1	0	0	0	0	1	1.04788818	-7.23490686	225	1	1.08889	0.986667;
	346	1	12.4	-3.5	0	0	1	1.01443497	-19.4827993	63	1	1.06349	0.968254;
	347	1	24.7	-8.3	0	0	1	1.05490704	-14.7825866	90	1	1.07778	0.977778;
	348	1	12.5	-0.3	0	0	1	1.05961374	-8.10085832	225	1	1.08444	1.00889;
	349	1	-1.3	-0	0	0	1	1.02204851	-28.9314982	63	1	1.06349	0.968254;
	350	1	47.8	5.6	0	0	1	1.05594067	-12.0921181	90	1	1.1	0.944444;
	351	1	0	0	0	0	1	1.09304786	-3.26031955	380	1	1.10526	1.04211;
	352	1	0	0	0	0	1	1.09379477	-3.33320339	380	1	1.10526	1.04211;
	353	1	9.4	3	0	0	1	1.07440108	-16.2724378	225	1	1.08889	1;
	354	1	3.4	5.7	0	0	1	1.06873132	-18.4629217	225	1	1.08889	1.00444;
	355	1	28.5	-9.7	0	0	1	1.01775633	-19.2851605	63	1	1.04762	0.952381;
	356	1	3.3	1.4	0	0	1	1.01630725	-19.1931279	63	1	1.07937	0.920635;
	357	1	10	3	0	0	1	1.03909392	-7.7082671	63	1	1.07937	0.920635;
	358	2	6	2	0	0	1	1.02509519	-21.2692385	63	1	1.07937	0.920635;
	359	1	18.4	5.5	0	0	1	0.999745038	-11.8675893	63	1	1.07937	0.952381;
	360	1	21.5	5.6	0	0	1	1.02552736	-21.2406648	63	1	1.07937	0.920635;
	361	1	26.4	1.9	0	0	1	1.01449877	-25.3026155	63	1	1.06349	0.968254;
	362	1	44.6	4.8	0	0	1	1.02312193	-24.0367162	63	1	1.07937	0.920635;
	363	1	0	0	0	0	1	1.06282536	-20.026759	150	1	1.1	0.9;
	364	1	0	0	0	0	1	1.05383787	-19.5067721	225	1	1.08889	1;
	365	1	9.3	4.2	0	0	1	1.07062813	-6.79086172	90	1	1.08889	0.933333;
	366	2	-1.8	0	0	0	1	1.078	-15.7389619	225	1	1.08889	1.00444;
	367	1	-0.1	-0	0	0	1	1.02483581	-9.84610406	63	1	1.06349	0.936508;
	368	1	0	0	0	0	1	1.0530118	-6.55989592	225	1	1.08889	0.933333;
	369	1	0	0	0	0	1	1.08001571	-5.27821637	380	1	1.10526	1.03947;
	370	1	0	0	0	0	1	1.07344507	-6.08725656	380	1	1.10526	1.03947;
	371	1	0	0	0	0	1	1.06990797	-18.8918083	225	1	1.08889	1.00444;
	372	1	44.9	8.3	0	0	1	1.06163098	-16.7333823	225	1	1.08889	1.00444;
	373	1	10.7	2.6	0	0	1	1.01060892	1.54485222	63	1	1.07937	0.952381;
	374	1	0	0	0	0	1	1.04036752	-2.02329568	225	1	1.08889	0.986667;
	375	1	21.6	6.7	0	0	1	1.06972744	-18.904779	225	1	1.08889	1.00444;
	376	1	23.6	2.6	0	0	1	0.992862274	-49.7240983	63	1	1.06349	0.952381;
	377	1	13.4	1.1	0	0	1	1.01755062	-31.461719	90	1	1.06667	0.977778;
	378	1	47.4	-2.8	0	0	1	1.02852303	-38.8090559	63	1	1.06349	0.952381;
	379	1	4.9	-2.9	0	0	1	1.00841456	-8.86719426	63	1	1.07937	0.952381;
	380	1	34.9	1.4	0	0	1	1.03429807	-17.4561113	63	1	1.06349	0.936508;
	381	1	0	0	0	0	1	1.05273729	-12.7823931	225	1	1.08889	0.933333;
	382	1	0	0	0	0	1	1.07506983	-7.97103959	380	1	1.10526	1.03947;
	383	1	46.5	8.6	0	0	1	1.03330504	-24.3110586	90	1	1.07778	0.977778;
	384	1	13.8	-0.4	0	0	1	1.01631073	-5.62252873	63	1	1.07937	0.952381;
	385	1	44.6	16.5	0	0	1	1.03061479	-10.8429189	63	1	1.07937	0.920635;
	386	1	17.7	1.8	0	0	1	0.99868086	-27.5097871	63	1	1.07937	0.920635;
	387	1	16	8.3	0	0	1	1.01799395	-1.97799761	63	1	1.07937	0.920635;
	388	1	42.8	11.5	0	0	1	1.07533274	-15.88219	225	1	1.08889	1;
	389	1	7.4	-3.1	0	0	1	1.05628436	-20.9280434	90	1	1.07778	0.922222;
	390	1	42.1	0.3	0	0	1	1.05388895	-10.7824615	90	1	1.1	0.944444;
	391	1	30	3.7	0	0	1	1.03329436	-16.1635582	63	1	1.06349	0.936508;
	392	1	1.9	0	0	0	1	1.02446885	-16.50349	63	1	1.06349	0.968254;
	393	1	22.4	-6	0	0	1	1.0059878	-25.3231168	63	1	1.07937	0.920635;
	394	1	23.2	0.1	0	0	1	1.00348379	-27.7602674	63	1	1.06349	0.968254;
	395	1	8	1	0	0	1	1.02648299	-12.4526203	63	1	1.07937	0.952381;
	396	1	6	2	0	0	1	1.04095876	-20.6221685	63	1	1.07937	0.920635;
	397	1	33	0.9	0	0	1	1.04106045	-20.6160397	63	1	1.07937	0.920635;
	398	1	0	0	0	0	1	1.03617585	-4.71334332	63	1	1.07937	0.952381;
	399	1	13	-2	0	0	1	1.02987752	-28.2550904	63	1	1.07937	0.920635;
	400	1	7	0.8	0	0	1	1.03076036	-30.7106386	90	1	1.06667	0.977778;
	401	1	2.8	2.2	0	0	1	1.07382782	-20.7468835	63	1	1.07937	0.920635;
	402	1	20.4	2.6	0	0	1	1.0373148	-22.1556044	63	1	1.07937	0.920635;
	403	1	4	0.1	0	0	1	1.03161697	-17.8602669	63	1	1.06349	0.936508;
	404	1	20.3	-0.6	0	0	1	1.03857793	-26.2712165	90	1	1.07778	0.922222;
	405	1	22.5	6.6	0	0	1	1.03023869	-13.2819987	63	1	1.06349	0.936508;
	406	1	31.1	7.4	0	0	1	1.01966782	-16.918623	63	1	1.06349	0.936508;
	407	1	5.3	2.9	0	0	1	1.01632581	-15.8079016	63	1	1.06349	0.936508;
	408	1	51.7	-1	0	0	1	1.02752471	-20.4098416	90	1	1.06667	0.977778;
	409	1	1	-0.3	0	0	1	1.03172888	-26.4622196	90	1	1.06667	0.977778;
	410	1	10.9	-4	0	0	1	1.063668	-28.6980972	63	1	1.07937	0.920635;
	411	1	17.8	1.9	0	0	1	1.0266863	-34.3799224	90	1	1.06667	0.977778;
	412	1	16.6	-0.8	0	0	1	1.02464743	-27.3520372	90	1	1.06667	0.977778;
	413	1	23.8	-17.9	0	0	1	1.00719231	-8.03967954	63	1	1.07937	0.952381;
	414	1	27.8	-0.1	0	0	1	1.03927403	-47.6474515	63	1	1.06349	0.952381;
	415	1	-0.1	0	0	0	1	0.983976692	-19.5411899	63	1	1.06349	0.936508;
	416	1	6.5	-2.8	0	0	1	1.02140753	-19.7310262	63	1	1.07937	0.952381;
	417	1	5.5	-42.8	0	0	1	1.07068867	-19.0591841	225	1	1.08889	1.00444;
	418	1	16.1	0.2	0	0	1	1.02395668	-30.814333	63	1	1.07937	0.920635;
	419	1	12	3.4	0	0	1	1.02440533	-17.2052117	63	1	1.04762	0.952381;
	420	1	26.5	7.8	0	0	1	1.05295477	-27.9488039	63	1	1.07937	0.920635;
	421	1	-5.4	1	0	0	1	1.05595304	-27.5344826	63	1	1.07937	0.920635;
	422	1	0	0	0	0	1	1.01787687	-32.8072364	63	1	1.06349	0.968254;
	423	1	0	0	0	0	1	1.06163453	-21.4604446	63	1	1.07937	0.920635;
	424	1	0	0	0	0	1	1.08317201	-18.4152639	225	1	1.08889	1;
	425	1	0	0	0	0	1	1.03004866	-2.16322813	63	1	1.07937	0.952381;
	426	1	0	0	0	0	1	1.06077432	1.2790379	225	1	1.08889	0.986667;
	427	1	0	0	0	0	1	1.02820792	-17.7965681	63	1	1.04762	0.952381;
	428	1	0.3	0.1	0	0	1	1.01454153	-9.76052415	63	1	1.06349	0.936508;
	429	1	6	0	0	0	1	1.03132614	-40.1779974	63	1	1.06349	0.952381;
	430	1	53.8	7.9	0	0	1	1.02499864	-21.5836662	63	1	1.06349	0.968254;
	431	1	96.4	23.6	0	0	1	1.07994946	-18.1068141	225	1	1.08889	1.00444;
	432	1	12	0.1	0	0	1	1.04626604	-25.777003	63	1	1.07937	0.920635;
	433	1	23.7	-3.2	0	0	1	1.01867593	-35.3853679	63	1	1.07937	0.920635;
	434	1	0.3	1.7	0	0	1	1.00742952	-17.7114372	63	1	1.04762	0.952381;
	435	1	14.3	-5.6	0	0	1	1.01271912	-13.5911125	63	1	1.06349	0.936508;