function mpc = case_ACTIVSg2000
%CASE_ACTIVSG2000  Synthetic Texas 2000-bus power system model.
%
%   This is an entirely synthetic 2000 bus case, geographically situated
%   in the US state of Texas. The case is designed with a 500, 230, 161
%   and 115 kV transmission network to serve a load that roughly mimics
%   the actual population of its geographic footprint. The synthetic
%   transmission system was designed by algorithms described in [1] to be
%   statistically similar to actual transmission system models but without
%   modeling any actual lines.
%
%   When publishing results based on this data, please cite:
%
%   [1] A.B. Birchfield, T. Xu, K.M. Gegner, K.S. Shetye, T.J. Overbye,
%       "Grid Structural Characteristics as Validation Criteria for
%       Synthetic Networks," IEEE Transactions on Power Systems,
%       vol. 32, no. 4, pp. 3258-3265, July 2017.
%       DOI: 10.1109/TPWRS.2016.2616385
%
%   This is a synthetic power system model that does not represent the
%   actual grid. It was developed as part of the US ARPA-E GRID DATA
%   research project and contains no CEII.
%
%   One-line diagrams and other data formats available at:
%       https://electricgrids.engr.tamu.edu
%
%   February 3, 2018

%   Created from ACTIVSg2000.pwb, saved by
%   PowerWorld Simulator, version 20, build date January 28, 2018,
%   then by MATPOWER 6.

%   MATPOWER
%   Copyright (c) 2017-2018 by A.B. Birchfield, T. Xu, K.M. Gegner, K.S. Shetye,
%   and T.J. Overbye
%   Licensed under the Creative Commons Attribution 4.0 International license,
%   http://creativecommons.org/licenses/by/4.0/

%% MATPOWER Case Format : Version 2
mpc.version = '2';

%%-----  Power Flow Data  -----%%
%% system MVA base
mpc.baseMVA = 100;

%% bus data
%	bus_i	type	Pd	Qd	Gs	Bs	area	Vm	Va	baseKV	zone	Vmax	Vmin	lam_P	lam_Q	mu_Vmax	mu_Vmin
mpc.bus = [
	1001	1	20.78	5.89	0	0	1	0.9794356	-22.734844	115	9	1.1	0.9	25.7500	-3.4800	0.0000	0.0000;
	1002	1	15.41	4.37	0	0	1	1.0127364	-18.088545	115	9	1.1	0.9	84.2100	0.4900	0.0000	0.0000;
	1003	1	0	0	0	0	1	1.0092629	-17.086699	115	9	1.1	0.9	-6.7400	0.1400	0.0000	0.0000;
	1004	2	0	0	0	0	1	1.0130707	-18.933999	230	9	1.1	0.9	-7.0800	6.0300	0.0000	0.0000;
	1005	1	0	0	0	0	1	1.0055761	-16.077157	115	9	1.1	0.9	-52.9600	-29.6300	0.0000	0.0000;
	1006	2	0	0	0	0	1	1	-13.905591	13.8	9	1.1	0.9	-50.4400	0.0000	0.0000	0.0000;
	1007	1	7.01	1.99	0	-0.82	1	1.02	-18.467212	115	9	1.1	0.9	73.7600	0.0000	0.0000	0.0000;
	1008	1	0	0	0	0	1	1.0192851	-8.605207	115	9	1.1	0.9	-680.6900	29.8600	0.0000	0.0000;
	1009	2	0	0	0	0	1	1.0092402	-5.309598	13.8	9	1.1	0.9	-680.3200	29.7600	0.0000	0.0000;
	1010	1	0	0	0	-3.07	1	1.02	-16.792355	115	9	1.1	0.9	86.1300	0.0000	0.0000	0.0000;
	1011	2	0	0	0	0	1	1.0202111	-15.009826	22	9	1.1	0.9	86.0200	0.0000	0.0000	0.0000;
	1012	1	2.99	0.85	0	9.5	1	1.0059921	-25.342783	115	9	1.1	0.9	-344.5900	36.1000	0.0000	0.0000;
	1013	1	29.23	8.28	0	0	1	1.0056772	-15.436565	115	9	1.1	0.9	49.3400	-0.9800	0.0000	0.0000;
	1014	1	2.22	0.63	0	0	1	1.0123505	-11.91325	115	9	1.1	0.9	71.8900	-7.3200	0.0000	0.0000;
	1015	1	7.51	2.13	0	0	1	1.0218177	-18.214501	115	9	1.1	0.9	81.0900	-0.1500	0.0000	0.0000;
	1016	1	2.89	0.82	0	30	1	1.0174069	-15.485448	115	9	1.1	0.9	-1.9100	-27.3300	0.0000	0.0000;
	1017	1	18.34	5.2	0	0	1	0.9816734	-21.426222	115	9	1.1	0.9	26.5600	-2.7100	0.0000	0.0000;
	1018	1	0.07	0.02	0	0	1	0.9911469	-20.216148	115	9	1.1	0.9	29.9100	-2.1500	0.0000	0.0000;
	1019	1	61.78	17.5	0	142.98	1	0.9994919	-22.320417	115	9	1.1	0.9	21.2500	-3.6000	0.0000	0.0000;
	1020	1	0	0	0	67.23	1	1.02	-15.230064	115	9	1.1	0.9	-53.9700	0.0000	0.0000	0.0000;
	1021	2	0	0	0	0	1	1	-8.606761	13.8	9	1.1	0.9	-52.3600	0.0000	0.0000	0.0000;
	1022	1	0	0	0	0	1	1.0124231	-16.204693	115	9	1.1	0.9	-6.0700	0.1900	0.0000	0.0000;
	1023	2	0	0	0	0	1	1.01	-7.300393	13.8	9	1.1	0.9	-5.9200	0.0000	0.0000	0.0000;
	1024	1	63.04	17.86	0	0	1	0.9944951	-19.200249	115	9	1.1	0.9	32.4600	-0.9900	0.0000	0.0000;
	1025	1	0	0	0	0	1	1.0162883	-14.170406	115	9	1.1	0.9	-52.2600	-11.8400	0.0000	0.0000;
	1026	2	0	0	0	0	1	1	-4.641462	13.8	9	1.1	0.9	-49.5300	0.0000	0.0000	0.0000;
	1027	1	101.21	28.68	0	75	1	1.0053046	-25.833336	115	9	1.1	0.9	-5.6400	-2.4900	0.0000	0.0000;
	1028	1	10.01	2.84	0	0	1	1.0154159	-17.717136	115	9	1.1	0.9	-4.8900	0.5000	0.0000	0.0000;
	1029	1	83.18	23.57	0	40	1	1.0024174	-24.858888	115	9	1.1	0.9	-0.1500	-0.6100	0.0000	0.0000;
	1030	1	24.63	6.98	0	0	1	1.0122298	-13.41143	115	9	1.1	0.9	99.1600	-10.0500	0.0000	0.0000;
	1031	1	9.25	2.62	0	0	1	1.0121888	-17.672258	115	9	1.1	0.9	61.7400	-0.0300	0.0000	0.0000;
	1032	1	0	0	0	0	1	1.0006583	-12.280471	115	9	1.1	0.9	132.8800	-43.5100	0.0000	0.0000;
	1033	2	0	0	0	50	1	1.0167542	-16.898515	230	9	1.1	0.9	51.5300	-22.1400	0.0000	0.0000;
	1034	1	0	0	0	0	1	1.0045345	-14.320349	115	9	1.1	0.9	-27.5400	-36.4900	0.0000	0.0000;
	1035	2	0	0	0	0	1	1	-11.030416	13.8	9	1.1	0.9	-23.3600	0.0000	0.0000	0.0000;
	1036	1	13.6	3.85	0	0	1	0.9976248	-12.526972	115	9	1.1	0.9	107.4400	-21.8600	0.0000	0.0000;
	1037	1	102.24	28.97	0	0	1	0.9745044	-22.5448	115	9	1.1	0.9	27.0800	-3.0000	0.0000	0.0000;
	1038	1	0	0	0	0	1	1.0165674	-7.646607	115	9	1.1	0.9	110.7900	-14.8600	0.0000	0.0000;
	1039	2	0	0	0	0	1	1	-2.263052	22	9	1.1	0.9	112.0800	0.0000	0.0000	0.0000;
	1040	1	44.36	12.57	0	0	1	0.9940145	-20.480041	115	9	1.1	0.9	29.6800	-1.7100	0.0000	0.0000;
	1041	1	0	0	0	0	1	1.0017746	-15.107504	115	9	1.1	0.9	-1038.7500	23.7600	0.0000	0.0000;
	1042	2	0	0	0	0	1	1.0017746	-15.107504	13.8	9	1.1	0.9	-1038.7500	23.7600	0.0000	0.0000;
	1043	2	0	0	0	0	1	1	-11.864177	13.8	9	1.1	0.9	-1037.8800	0.0000	0.0000	0.0000;
	1044	1	14.68	4.16	0	0	1	1.0067555	-25.963881	115	9	1.1	0.9	-141.5500	-40.2700	0.0000	0.0000;
	1045	1	98.56	27.93	0	0	1	0.9774255	-24.447556	115	9	1.1	0.9	18.0500	-3.5000	0.0000	0.0000;
	1046	1	11.08	3.14	0	12	1	1.0176344	-22.491396	115	9	1.1	0.9	-423.4200	31.5500	0.0000	0.0000;
	1047	1	0	0	0	0	1	1.0052508	-13.35005	115	9	1.1	0.9	47.2400	-1.2800	0.0000	0.0000;
	1048	2	0	0	0	0	1	1.0052508	-13.35005	18	9	1.1	0.9	47.2400	-1.2800	0.0000	0.0000;
	1049	2	0	0	0	0	1	1.0052508	-13.35005	18	9	1.1	0.9	47.2400	-1.2800	0.0000	0.0000;
	1050	2	0	0	0	0	1	1	-8.284789	18	9	1.1	0.9	47.1700	0.0000	0.0000	0.0000;
	1051	2	0	0	0	0	1	1	-6.807389	18	9	1.1	0.9	47.0500	0.0000	0.0000	0.0000;
	1052	2	0	0	0	0	1	1	-9.134369	18	9	1.1	0.9	47.1300	0.0000	0.0000	0.0000;
	1053	2	0	0	0	0	1	1.0174089	-17.33616	230	9	1.1	0.9	46.3800	-0.3200	0.0000	0.0000;
	1054	1	14.99	4.25	0	0	1	1.0036844	-22.292331	115	9	1.1	0.9	-18.5800	0.2400	0.0000	0.0000;
	1055	1	3.98	1.13	0	0	1	1.001405	-18.129563	115	9	1.1	0.9	-8.0700	-0.0300	0.0000	0.0000;
	1056	1	0	0	0	59.97	1	1.02	-21.819612	115	9	1.1	0.9	-20.8400	0.0000	0.0000	0.0000;
	1057	2	0	0	0	0	1	1.02	-21.819612	18	9	1.1	0.9	-20.8400	0.0000	0.0000	0.0000;
	1058	1	13.46	3.81	0	0	1	1.0193738	-11.220883	115	9	1.1	0.9	-585.8000	13.3000	0.0000	0.0000;
	1059	2	0	0	0	0	1	1.0193738	-11.220883	22	9	1.1	0.9	-585.8000	13.3000	0.0000	0.0000;
	1060	2	0	0	0	0	1	1.0193738	-11.220883	22	9	1.1	0.9	-585.8000	13.3000	0.0000	0.0000;
	1061	1	0	0	0	0	1	1.0065566	-17.219364	115	9	1.1	0.9	-60.9200	-23.1300	0.0000	0.0000;
	1062	2	0	0	0	0	1	1.0065566	-17.219364	13.8	9	1.1	0.9	-60.9200	-23.1300	0.0000	0.0000;
	1063	2	0	0	0	0	1	1.0065566	-17.219364	13.8	9	1.1	0.9	-60.9200	-23.1300	0.0000	0.0000;
	1064	1	123.76	35.07	0	0	1	0.9720345	-24.153272	115	9	1.1	0.9	23.2500	-3.5400	0.0000	0.0000;
	1065	1	0	0	0	0	1	1.0042605	-14.932578	115	9	1.1	0.9	-2026.4900	113.3100	0.0000	0.0000;
	1066	2	0	0	0	0	1	1	-7.399054	13.8	9	1.1	0.9	-2023.9500	0.0000	0.0000	0.0000;
	1067	1	101.55	28.77	0	0	1	0.9985952	-15.68248	115	9	1.1	0.9	-45.3700	-60.7700	0.0000	0.0000;
	1068	1	59.4	16.83	0	0	1	0.9868034	-16.436894	115	9	1.1	0.9	37.4700	-15.8100	0.0000	0.0000;
	1069	1	0	0	0	0	1	1.0225598	-8.732588	115	9	1.1	0.9	-619.5200	14.7100	0.0000	0.0000;
	1070	2	0	0	0	0	1	1.04	-4.228777	13.8	9	1.1	0.9	-617.1200	0.0000	0.0000	0.0000;
	1071	1	91.46	25.91	0	0	1	0.9870267	-21.47404	115	9	1.1	0.9	27.6900	-3.3500	0.0000	0.0000;
	1072	2	0	0	0	0	1	1.01	-12.110027	18	9	1.1	0.9	28.0300	0.0000	0.0000	0.0000;
	1073	2	0	0	0	0	1	1.01	-5.681972	18	9	1.1	0.9	28.3400	0.0000	0.0000	0.0000;
	1074	2	0	0	0	0	1	1.01	-7.738009	18	9	1.1	0.9	28.2000	0.0000	0.0000	0.0000;
	1075	2	0	0	0	0	1	1.01	-10.505543	18	9	1.1	0.9	28.1600	0.0000	0.0000	0.0000;
	1076	2	0	0	0	0	1	0.9870267	-21.47404	18	9	1.1	0.9	27.6900	-3.3500	0.0000	0.0000;
	1077	2	0	0	0	0	1	0.9870267	-21.47404	18	9	1.1	0.9	27.6900	-3.3500	0.0000	0.0000;
	1078	2	0	0	0	0	1	1.01	-11.024659	18	9	1.1	0.9	28.1900	0.0000	0.0000	0.0000;
	1079	2	0	0	0	0	1	1.0162141	-38.582859	500	9	1.1	0.9	38.0200	-10.2300	0.0000	0.0000;
	1080	2	0	0	0	0	1	1.01	-10.448676	18	9	1.1	0.9	28.0600	0.0000	0.0000	0.0000;
	1081	2	0	0	0	56.9	1	1.02	-18.691287	230	9	1.1	0.9	46.2600	0.0000	0.0000	0.0000;
	1082	2	0	0	0	0	1	1.0194126	-5.910392	115	9	1.1	0.9	-589.2600	7.3400	0.0000	0.0000;
	1083	1	39.95	11.32	0	26.15	1	1.0188617	-9.886743	115	9	1.1	0.9	102.1700	-13.7100	0.0000	0.0000;
	1084	2	0	0	0	0	1	1.0225199	-16.467206	115	9	1.1	0.9	-42.6500	-7.5000	0.0000	0.0000;
	1085	1	21.3	6.03	0	0	1	1.008987	-15.342869	115	9	1.1	0.9	44.1000	-0.9300	0.0000	0.0000;
	1086	1	39.67	11.24	0	30	1	1.015374	-17.585057	115	9	1.1	0.9	47.0000	-1.1800	0.0000	0.0000;
	1087	1	0.91	0.26	0	8.66	1	1.02	-16.125402	115	9	1.1	0.9	-514.2000	0.0000	0.0000	0.0000;
	1088	2	0	0	0	0	1	1	-11.878466	115	9	1.1	0.9	82.0500	0.0000	0.0000	0.0000;
	1089	1	40.6	11.5	0	0	1	0.9806318	-21.306753	115	9	1.1	0.9	-12.4400	-0.2700	0.0000	0.0000;
	1090	2	0	0	0	0	1	1.02	-16.145053	115	9	1.1	0.9	34.4400	0.0000	0.0000	0.0000;
	1091	1	11.62	3.29	0	0	1	1.0248315	-31.017725	161	9	1.1	0.9	-23.2600	-0.7600	0.0000	0.0000;
	2001	1	48.36	13.7	0	0	2	1.0017518	-59.982147	161	11	1.1	0.9	141.9600	14.2400	0.0000	0.0000;
	2002	1	0	0	0	0	2	1.011061	-61.566631	500	11	1.1	0.9	148.2000	16.9700	0.0000	0.0000;
	2003	1	0	0	0	0	2	1.0093382	-63.828546	161	11	1.1	0.9	155.9200	19.8300	0.0000	0.0000;
	2004	2	0	0	0	0	2	1.011061	-61.566631	13.8	11	1.1	0.9	148.2000	16.9700	0.0000	0.0000;
	2005	2	0	0	0	0	2	1.011061	-61.566631	13.8	11	1.1	0.9	148.2000	16.9700	0.0000	0.0000;
	2006	2	0	0	0	0	2	1.011061	-61.566631	13.8	11	1.1	0.9	148.2000	16.9700	0.0000	0.0000;
	2007	1	9.54	2.7	0	0	2	1.0025088	-59.751902	161	11	1.1	0.9	144.5600	16.5900	0.0000	0.0000;
	2008	1	8.06	2.28	0	0	2	1.0161296	-32.833005	161	10	1.1	0.9	6.8600	-1.0900	0.0000	0.0000;
	2009	1	39.14	11.09	0	113.65	2	1.02	-45.215386	161	11	1.1	0.9	19.7100	0.0000	0.0000	0.0000;
	2010	1	56.81	16.09	0	22.39	2	1.02	-36.405086	161	10	1.1	0.9	-47.2000	0.0000	0.0000	0.0000;
	2011	1	0	0	0	0	2	1.0388703	-32.100979	500	10	1.1	0.9	24.3600	-0.3500	0.0000	0.0000;
	2012	1	0	0	0	0	2	1.0270973	-29.869241	161	10	1.1	0.9	21.8000	-0.7200	0.0000	0.0000;
	2013	2	0	0	0	0	2	1.0305102	-29.76103	18	10	1.1	0.9	24.3700	-0.3600	0.0000	0.0000;
	2014	1	25.43	7.2	0	0	2	1.014488	-33.408935	161	10	1.1	0.9	-1.8700	-0.8300	0.0000	0.0000;
	2015	1	4.69	1.33	0	0	2	1.0060782	-63.292789	161	11	1.1	0.9	247.0500	17.4400	0.0000	0.0000;
	2016	1	69.27	19.63	0	0	2	1.0060187	-69.954795	161	11	1.1	0.9	2322.9100	545.8200	0.0000	0.0000;
	2017	1	0	0	0	-200	2	1.0283919	-32.24683	500	10	1.1	0.9	21.4800	0.1900	0.0000	0.0000;
	2018	1	0	0	0	0	2	1.0264922	-31.456709	161	10	1.1	0.9	21.6700	-0.1000	0.0000	0.0000;
	2019	2	0	0	0	0	2	1.0283919	-32.24683	20	10	1.1	0.9	21.4800	0.1900	0.0000	0.0000;
	2020	1	47.97	13.59	0	0	2	0.9951749	-44.885383	161	11	1.1	0.9	25.6900	4.2600	0.0000	0.0000;
	2021	1	0	0	0	0	2	1.0138733	-56.702369	500	11	1.1	0.9	135.3500	9.9500	0.0000	0.0000;
	2022	1	11.56	3.28	0	0	2	1.0100102	-58.637546	161	11	1.1	0.9	138.8400	13.0800	0.0000	0.0000;
	2023	2	0	0	0	0	2	1.02	-55.13952	13.8	11	1.1	0.9	134.8100	0.0000	0.0000	0.0000;
	2024	2	0	0	0	0	2	1.02	-54.474073	13.8	11	1.1	0.9	134.6600	0.0000	0.0000	0.0000;
	2025	1	39.62	11.23	0	0	2	0.994074	-44.124136	161	11	1.1	0.9	17.8400	1.5300	0.0000	0.0000;
	2026	1	18.57	5.26	0	0	2	1.0264805	-31.081493	161	10	1.1	0.9	23.8600	-0.4700	0.0000	0.0000;
	2027	1	3.55	1.01	0	0	2	1.0021966	-60.413018	161	11	1.1	0.9	143.7200	14.9800	0.0000	0.0000;
	2028	1	14.24	4.03	0	0	2	0.9945927	-47.249778	161	11	1.1	0.9	44.1300	10.6900	0.0000	0.0000;
	2029	1	3.2	0.91	0	0	2	1.0200518	-32.781385	161	10	1.1	0.9	-8.6900	-0.5600	0.0000	0.0000;
	2030	1	47.15	13.36	0	0	2	0.9883653	-64.039783	161	11	1.1	0.9	163.8000	24.6200	0.0000	0.0000;
	2031	1	5.77	1.63	0	0	2	1.0204588	-29.638731	161	10	1.1	0.9	-81.8900	7.2400	0.0000	0.0000;
	2032	1	3.35	0.95	0	0	2	1.004536	-59.146912	161	11	1.1	0.9	142.6200	15.3300	0.0000	0.0000;
	2033	1	13.57	3.85	0	0	2	0.9908717	-65.552183	161	11	1.1	0.9	172.6100	26.2800	0.0000	0.0000;
	2034	1	5.34	1.51	0	0	2	1.0046209	-69.283118	161	11	1.1	0.9	2456.8200	590.2500	0.0000	0.0000;
	2035	1	4.68	1.33	0	0	2	1.0152073	-30.560737	161	10	1.1	0.9	-98.5100	10.2600	0.0000	0.0000;
	2036	1	41.59	11.78	0	0	2	0.998941	-44.48325	161	11	1.1	0.9	20.6100	1.7700	0.0000	0.0000;
	2037	1	3.5	0.99	0	0	2	1.0166773	-63.62606	161	11	1.1	0.9	275.4100	12.4300	0.0000	0.0000;
	2038	1	2.6	0.74	0	0	2	1.0063308	-64.301324	161	11	1.1	0.9	159.8400	21.4800	0.0000	0.0000;
	2039	1	5.56	1.58	0	0	2	0.9912537	-60.671164	161	11	1.1	0.9	168.9500	23.3000	0.0000	0.0000;
	2040	1	15.9	4.51	0	0	2	1.0074385	-59.308023	161	11	1.1	0.9	140.7400	13.7500	0.0000	0.0000;
	2041	1	0	0	0	0	2	1.0280219	-27.686092	161	10	1.1	0.9	21.8900	-0.5400	0.0000	0.0000;
	2042	2	0	0	0	0	2	1.0194284	-25.11083	18	10	1.1	0.9	21.9000	-2.8900	0.0000	0.0000;
	2043	1	4.24	1.2	0	0	2	1.0050458	-69.589647	161	11	1.1	0.9	2400.3300	573.9300	0.0000	0.0000;
	2044	1	27.4	7.76	0	0	2	1.0130566	-65.383329	161	11	1.1	0.9	261.0300	18.8300	0.0000	0.0000;
	2045	1	22.61	6.4	0	0	2	0.9944497	-45.423966	161	11	1.1	0.9	29.4400	5.7000	0.0000	0.0000;
	2046	1	22.13	6.27	0	0	2	1.0045595	-68.896782	161	11	1.1	0.9	2515.8800	603.8800	0.0000	0.0000;
	2047	1	14.96	4.24	0	0	2	1.0079022	-64.729913	161	11	1.1	0.9	1395.5700	363.4200	0.0000	0.0000;
	2048	1	6.42	1.82	0	0	2	1.0237031	-31.710962	161	10	1.1	0.9	-50.4400	2.9400	0.0000	0.0000;
	2049	1	11.57	3.28	0	0	2	1.0177581	-40.946465	161	10	1.1	0.9	-0.7900	2.0600	0.0000	0.0000;
	2050	1	3.66	1.04	0	0	2	0.9941919	-63.23541	161	11	1.1	0.9	156.1600	20.5300	0.0000	0.0000;
	2051	1	17.85	5.06	0	0	2	0.989552	-54.140347	161	11	1.1	0.9	119.2700	25.2600	0.0000	0.0000;
	2052	1	24.84	7.04	0	0	2	1.0174448	-31.96347	161	10	1.1	0.9	14.1300	-1.1100	0.0000	0.0000;
	2053	1	29.13	8.25	0	0	2	0.9910634	-59.360379	161	11	1.1	0.9	109.2800	18.7400	0.0000	0.0000;
	2054	1	0	0	0	0	2	0.9977811	-43.13131	500	11	1.1	0.9	19.4700	0.9900	0.0000	0.0000;
	2055	1	49.62	14.06	0	0	2	0.9973321	-43.960678	161	11	1.1	0.9	20.7500	1.9800	0.0000	0.0000;
	2056	2	0	0	0	0	2	0.9977811	-43.13131	18	11	1.1	0.9	19.4700	0.9900	0.0000	0.0000;
	2057	2	0	0	0	0	2	0.99	-38.725286	18	11	1.1	0.9	19.3300	0.0000	0.0000	0.0000;
	2058	1	0	0	0	0	2	1.0283596	-27.258033	161	10	1.1	0.9	22.1100	-0.5300	0.0000	0.0000;
	2059	2	0	0	0	0	2	1.0183617	-23.911715	13.8	10	1.1	0.9	22.0900	-0.5300	0.0000	0.0000;
	2060	1	3.8	1.08	0	0	2	0.9974049	-61.950951	161	11	1.1	0.9	151.9700	19.2900	0.0000	0.0000;
	2061	1	0	0	0	0	2	1.0211752	-37.427819	161	10	1.1	0.9	-16.0700	0.8800	0.0000	0.0000;
	2062	2	0	0	0	0	2	1.02	-35.131	18	10	1.1	0.9	-16.0600	0.0000	0.0000	0.0000;
	2063	1	65.62	18.59	0	40	2	1.0060645	-68.258359	161	11	1.1	0.9	2558.9800	612.1200	0.0000	0.0000;
	2064	1	10.05	2.85	0	0	2	1.0031055	-60.277381	161	11	1.1	0.9	145.0500	16.1800	0.0000	0.0000;
	2065	1	78.36	22.2	0	94.98	2	1.02	-65.600732	161	11	1.1	0.9	317.7700	0.0000	0.0000	0.0000;
	2066	1	7.11	2.02	0	0	2	1.014436	-27.628767	161	10	1.1	0.9	-119.1700	10.1000	0.0000	0.0000;
	2067	1	53.97	15.29	0	0	2	0.9923568	-44.047987	161	11	1.1	0.9	13.7100	1.0900	0.0000	0.0000;
	2068	1	5.76	1.63	0	0	2	0.9989951	-42.016304	161	11	1.1	0.9	-3.0800	-0.2200	0.0000	0.0000;
	2069	1	21.92	6.21	0	110.69	2	1.02	-69.116814	161	11	1.1	0.9	211.3000	0.0000	0.0000	0.0000;
	2070	1	0	0	0	0	2	1.0010765	-41.598099	161	11	1.1	0.9	-9.2800	-0.1900	0.0000	0.0000;
	2071	2	0	0	0	0	2	1	-37.919678	18	11	1.1	0.9	-9.2200	0.0000	0.0000	0.0000;
	2072	1	9.71	2.75	0	0	2	1.0148759	-67.240635	161	11	1.1	0.9	196.2700	48.1600	0.0000	0.0000;
	2073	1	0	0	0	0	2	1.0155141	-25.108834	161	10	1.1	0.9	-134.8900	8.3800	0.0000	0.0000;
	2074	1	0	0	0	0	2	1.0058489	-23.236834	115	10	1.1	0.9	-187.9600	4.7300	0.0000	0.0000;
	2075	1	0	0	0	0	2	1.0058489	-23.236834	115	10	1.1	0.9	-187.9600	4.7300	0.0000	0.0000;
	2076	2	0	0	0	0	2	1.0207772	-24.20214	24	10	1.1	0.9	-134.9500	8.3600	0.0000	0.0000;
	2077	1	0	0	0	0	2	1.0178964	-61.197723	161	11	1.1	0.9	244.4700	11.6100	0.0000	0.0000;
	2078	2	0	0	0	0	2	1.02	-57.875001	13.8	11	1.1	0.9	242.7000	0.0000	0.0000	0.0000;
	2079	1	4.48	1.27	0	0	2	1.0222991	-34.626738	161	10	1.1	0.9	-48.5300	1.3600	0.0000	0.0000;
	2080	1	16.93	4.8	0	0	2	0.9946218	-57.499175	161	11	1.1	0.9	160.8500	24.6900	0.0000	0.0000;
	2081	1	4.46	1.26	0	0	2	1.0009362	-65.107672	161	11	1.1	0.9	166.9900	24.3400	0.0000	0.0000;
	2082	1	59.03	16.73	0	0	2	1.002871	-44.826631	161	11	1.1	0.9	20.4200	1.5300	0.0000	0.0000;
	2083	2	0	0	0	0	2	1.0175906	-43.247104	20	11	1.1	0.9	20.3100	1.4800	0.0000	0.0000;
	2084	2	0	0	0	0	2	1.002871	-44.826631	20	11	1.1	0.9	20.4200	1.5300	0.0000	0.0000;
	2085	2	0	0	0	0	2	1.002871	-44.826631	20	11	1.1	0.9	20.4200	1.5300	0.0000	0.0000;
	2086	1	2.19	0.62	0	0	2	0.9924453	-59.474499	161	11	1.1	0.9	165.9200	23.9800	0.0000	0.0000;
	2087	1	7.9	2.24	0	0	2	1.017379	-27.472635	161	10	1.1	0.9	-109.6900	9.0500	0.0000	0.0000;
	2088	1	0	0	0	0	2	1.0000706	-41.716402	161	11	1.1	0.9	-5.3400	-0.2400	0.0000	0.0000;
	2089	2	0	0	0	0	2	1	-38.113501	24	11	1.1	0.9	-5.2800	0.0000	0.0000	0.0000;
	2090	1	2.42	0.69	0	0	2	1.0025227	-61.033299	161	11	1.1	0.9	146.6600	16.3500	0.0000	0.0000;
	2091	1	17.05	4.83	0	0	2	1.0162815	-33.97855	161	10	1.1	0.9	-72.4200	7.2000	0.0000	0.0000;
	2092	1	24.11	6.83	0	0	2	1.0054244	-66.568503	161	11	1.1	0.9	2569.9700	618.2600	0.0000	0.0000;
	2093	1	0	0	0	0	2	1.0272713	-30.621379	161	10	1.1	0.9	21.7400	-0.4300	0.0000	0.0000;
	2094	2	0	0	0	0	2	1.0272713	-30.621379	13.8	10	1.1	0.9	21.7400	-0.4300	0.0000	0.0000;
	2095	2	0	0	0	0	2	1.0272713	-30.621379	13.8	10	1.1	0.9	21.7400	-0.4300	0.0000	0.0000;
	2096	1	0	0	0	-122.33	2	1.0199998	-27.84317	500	10	1.1	0.9	9.9700	0.6400	0.0000	0.0000;
	2097	1	0	0	0	0	2	1.0192658	-27.282308	230	10	1.1	0.9	7.2600	0.5800	0.0000	0.0000;
	2098	1	0	0	0	0	2	1.0256479	-30.426538	161	10	1.1	0.9	-18.4100	-1.6600	0.0000	0.0000;
	2099	2	0	0	0	0	2	1.02	-27.699549	18	10	1.1	0.9	9.9600	0.0000	0.0000	0.0000;
	2100	2	0	0	0	0	2	1.02	-25.218709	18	10	1.1	0.9	9.9300	0.0000	0.0000	0.0000;
	2101	1	0	0	0	0	2	1.010539	-62.673279	500	11	1.1	0.9	150.8700	18.3100	0.0000	0.0000;
	2102	1	0	0	0	0	2	1.0105919	-64.120882	161	11	1.1	0.9	176.2200	27.2000	0.0000	0.0000;
	2103	2	0	0	0	0	2	1.010539	-62.673279	20	11	1.1	0.9	150.8700	18.3100	0.0000	0.0000;
	2104	2	0	0	0	0	2	1.010539	-62.673279	20	11	1.1	0.9	150.8700	18.3100	0.0000	0.0000;
	2105	2	0	0	0	0	2	1.010539	-62.673279	20	11	1.1	0.9	150.8700	18.3100	0.0000	0.0000;
	2106	1	14.4	4.08	0	0	2	0.9891329	-66.198009	161	11	1.1	0.9	178.0800	28.5300	0.0000	0.0000;
	2107	1	74.15	21.01	0	0	2	1.0051501	-64.992908	161	11	1.1	0.9	192.4900	27.8800	0.0000	0.0000;
	2108	1	2.14	0.61	0	0	2	0.9991016	-43.691094	161	10	1.1	0.9	-182.5800	88.3600	0.0000	0.0000;
	2109	1	33.81	9.58	0	0	2	1.0066134	-46.357265	161	11	1.1	0.9	29.5300	4.9400	0.0000	0.0000;
	2110	1	8.59	2.43	0	40.13	2	1.02	-62.269561	161	11	1.1	0.9	257.1700	0.0000	0.0000	0.0000;
	2111	1	13.95	3.95	0	0	2	0.9946072	-48.990101	161	11	1.1	0.9	-69.6100	41.0200	0.0000	0.0000;
	2112	1	4.54	1.29	0	0	2	0.9916571	-49.379366	161	11	1.1	0.9	66.3900	17.3200	0.0000	0.0000;
	2113	1	0	0	0	0	2	1.0137786	-56.233081	500	11	1.1	0.9	133.9900	9.7700	0.0000	0.0000;
	2114	1	70.78	20.05	0	0	2	1.0113736	-57.520113	161	11	1.1	0.9	136.1600	11.9500	0.0000	0.0000;
	2115	2	0	0	0	0	2	1.0048888	-52.23961	13.8	11	1.1	0.9	132.2500	10.0800	0.0000	0.0000;
	2116	2	0	0	0	0	2	1.0095429	-54.163985	13.8	11	1.1	0.9	133.1500	9.8900	0.0000	0.0000;
	2117	2	0	0	0	0	2	1.0021538	-51.600268	13.8	11	1.1	0.9	132.1800	10.1200	0.0000	0.0000;
	2118	2	0	0	0	0	2	1.0007844	-51.092416	13.8	11	1.1	0.9	131.9000	10.1900	0.0000	0.0000;
	2119	2	0	0	0	0	2	1.0084621	-53.711535	13.8	11	1.1	0.9	132.9700	9.9300	0.0000	0.0000;
	2120	2	0	0	0	0	2	1.01	-51.344328	13.8	11	1.1	0.9	132.6900	0.0000	0.0000	0.0000;
	2121	1	2.33	0.66	0	0	2	1.0061151	-59.941306	161	11	1.1	0.9	142.7900	14.6600	0.0000	0.0000;
	2122	1	6.72	1.9	0	0	2	0.9963019	-61.14302	161	11	1.1	0.9	151.1300	19.2700	0.0000	0.0000;
	2123	2	0	0	0	0	2	1.0285431	-27.029356	161	10	1.1	0.9	21.9000	-0.5800	0.0000	0.0000;
	2124	1	21.29	6.03	0	0	2	0.9877701	-67.273303	161	11	1.1	0.9	185.1500	31.6200	0.0000	0.0000;
	2125	1	4.06	1.15	0	0	2	0.9932884	-67.337716	161	11	1.1	0.9	282.3300	18.7500	0.0000	0.0000;
	2126	1	14.24	4.03	0	0	2	1.0068733	-67.004796	161	11	1.1	0.9	433.8600	-10.0600	0.0000	0.0000;
	2127	2	0	0	0	-155.97	2	1.04	-33.967593	500	10	1.1	0.9	25.3800	0.0000	0.0000	0.0000;
	2128	1	0	0	0	0	2	1.0300583	-32.47773	161	10	1.1	0.9	24.6700	-0.5100	0.0000	0.0000;
	2129	1	6.63	1.88	0	0	2	0.9922046	-66.114879	161	11	1.1	0.9	177.8900	27.7500	0.0000	0.0000;
	2130	1	0	0	0	0	2	1.0007321	-42.301537	161	10	1.1	0.9	-210.8000	96.3000	0.0000	0.0000;
	2131	1	0	0	0	0	2	0.9951718	-39.712836	115	10	1.1	0.9	-270.0100	97.4600	0.0000	0.0000;
	2132	1	11.94	3.38	0	10	2	1.0111016	-41.451971	115	10	1.1	0.9	-264.3100	99.5600	0.0000	0.0000;
	2133	1	5.68	1.61	0	0	2	1.0129003	-60.522664	161	11	1.1	0.9	228.4300	15.1400	0.0000	0.0000;
	3001	1	0	0	0	0	3	1.0045071	-56.055858	230	28	1.1	0.9	47.3800	6.4700	0.0000	0.0000;
	3002	1	112.86	31.98	0	0	3	0.9925381	-58.537415	115	28	1.1	0.9	45.2300	5.4500	0.0000	0.0000;
	3003	1	0	0	0	0	3	1.0139253	-18.246162	115	27	1.1	0.9	-695.0700	17.0000	0.0000	0.0000;
	3004	2	0	0	0	0	3	1.009025	-16.644394	18	27	1.1	0.9	-694.7500	16.9300	0.0000	0.0000;
	3005	1	7.34	2.08	0	0	3	1.0105581	-58.521456	115	28	1.1	0.9	20.2200	2.0100	0.0000	0.0000;
	3006	1	7.35	2.08	0	0	3	0.9998442	-26.877872	115	27	1.1	0.9	-794.6200	136.2000	0.0000	0.0000;
	3007	1	14.96	4.24	0	0	3	1.0123256	-24.724902	115	27	1.1	0.9	-1158.2600	188.5800	0.0000	0.0000;
	3008	1	19.81	5.61	0	0	3	0.9910125	-37.183753	115	27	1.1	0.9	-393.0600	160.7100	0.0000	0.0000;
	3009	1	12.54	3.55	0	0	3	1.0111101	-31.252042	115	28	1.1	0.9	-263.4100	27.7100	0.0000	0.0000;
	3010	1	4.67	1.32	0	0	3	0.9970474	-57.524886	115	28	1.1	0.9	20.4500	1.7200	0.0000	0.0000;
	3011	1	27.14	7.69	0	0	3	1.0068971	-61.494144	115	28	1.1	0.9	287.9000	37.4400	0.0000	0.0000;
	3012	1	0.56	0.16	0	0	3	1.00822	-61.089137	115	28	1.1	0.9	300.4400	34.5300	0.0000	0.0000;
	3013	1	64.56	18.29	0	65	3	1.0157866	-28.589048	115	27	1.1	0.9	-960.1800	183.8600	0.0000	0.0000;
	3014	1	22	6.23	0	0	3	1.013961	-53.58773	115	28	1.1	0.9	76.1700	27.9700	0.0000	0.0000;
	3015	1	5.36	1.52	0	0	3	1.0111514	-17.008563	115	27	1.1	0.9	-269.5900	-197.3100	0.0000	0.0000;
	3016	1	0	0	0	0	3	1.0091303	-21.984673	115	27	1.1	0.9	-1129.7900	123.3300	0.0000	0.0000;
	3017	2	0	0	0	0	3	1.01	-16.780818	18	27	1.1	0.9	-1138.8300	0.0000	0.0000	0.0000;
	3018	1	0	0	0	0	3	1.0229356	-29.156049	230	27	1.1	0.9	-157.1900	-28.1900	0.0000	0.0000;
	3019	1	0	0	0	27.84	3	1.02	-30.777457	115	27	1.1	0.9	-213.1900	0.0000	0.0000	0.0000;
	3020	2	0	0	0	0	3	1.03	-25.014342	13.8	27	1.1	0.9	-154.1300	0.0000	0.0000	0.0000;
	3021	1	1.94	0.55	0	0	3	0.999226	-35.741111	115	27	1.1	0.9	-338.6300	100.9900	0.0000	0.0000;
	3022	1	24.59	6.97	0	0	3	0.9959859	-18.121194	115	27	1.1	0.9	-50.0000	-138.8000	0.0000	0.0000;
	3023	1	10.41	2.95	0	46.37	3	1.02	-26.986888	115	27	1.1	0.9	-538.5100	0.0000	0.0000	0.0000;
	3024	1	10.13	2.87	0	0	3	1.0156701	-31.222678	115	28	1.1	0.9	-229.7000	-19.6700	0.0000	0.0000;
	3025	1	13.67	3.87	0	0	3	0.9934448	-45.629015	115	28	1.1	0.9	-105.4600	77.8300	0.0000	0.0000;
	3026	1	0	0	0	0	3	1.0240344	-36.852919	230	27	1.1	0.9	-722.6500	73.6700	0.0000	0.0000;
	3027	1	0	0	0	0	3	1.0169718	-37.434869	115	27	1.1	0.9	-740.5900	323.8500	0.0000	0.0000;
	3028	2	0	0	0	0	3	1.036934	-34.250404	18	27	1.1	0.9	-726.0500	2398.8100	0.0000	0.0000;
	3029	1	4.87	1.38	0	0	3	1.0220906	-53.840897	115	28	1.1	0.9	47.7900	0.3600	0.0000	0.0000;
	3030	1	129.72	36.75	0	80	3	1.0081662	-40.188617	115	27	1.1	0.9	326.7200	-108.0200	0.0000	0.0000;
	3031	1	14.73	4.17	0	0	3	0.9971917	-26.254366	115	27	1.1	0.9	-579.0800	82.9500	0.0000	0.0000;
	3032	1	72.86	20.64	0	0	3	0.999911	-27.145405	115	27	1.1	0.9	-959.5200	165.5000	0.0000	0.0000;
	3033	1	0	0	0	0	3	1.0072273	-15.053231	115	27	1.1	0.9	-809.5000	10.4900	0.0000	0.0000;
	3034	2	0	0	0	0	3	1.03	-5.774789	22	27	1.1	0.9	-806.7900	0.0000	0.0000	0.0000;
	3035	1	3.47	0.98	0	0	3	0.9959845	-44.739905	115	28	1.1	0.9	-96.9500	75.1700	0.0000	0.0000;
	3036	1	5.8	1.64	0	0	3	0.9928838	-41.904562	115	28	1.1	0.9	-204.0100	116.1700	0.0000	0.0000;
	3037	1	0	0	0	0	3	1.0228519	-25.530863	230	27	1.1	0.9	4.6200	-6.5000	0.0000	0.0000;
	3038	1	0	0	0	0	3	1.0038849	-20.121033	115	27	1.1	0.9	-111.3100	-91.9200	0.0000	0.0000;
	3039	2	0	0	0	0	3	1.0358056	-22.932201	13.8	27	1.1	0.9	5.2200	-6.3600	0.0000	0.0000;
	3040	1	14.61	4.14	0	0	3	0.9901182	-34.465473	115	27	1.1	0.9	51.9900	-29.6900	0.0000	0.0000;
	3041	1	0	0	0	0	3	1.0161746	-29.2954	230	27	1.1	0.9	44.2900	-9.7400	0.0000	0.0000;
	3042	1	8.75	2.48	0	0	3	1.0022267	-18.843463	115	27	1.1	0.9	-170.9300	-1.3900	0.0000	0.0000;
	3043	2	0	0	0	0	3	1.0161746	-29.2954	13.8	27	1.1	0.9	44.2900	-9.7400	0.0000	0.0000;
	3044	2	0	0	0	0	3	1.0161746	-29.2954	13.8	27	1.1	0.9	44.2900	-9.7400	0.0000	0.0000;
	3045	2	0	0	0	0	3	1.0161746	-29.2954	13.8	27	1.1	0.9	44.2900	-9.7400	0.0000	0.0000;
	3046	1	0	0	0	200	3	1.0123792	-34.755563	230	27	1.1	0.9	61.9700	-20.0900	0.0000	0.0000;
	3047	1	0	0	0	99.71	3	1.02	-20.528194	115	27	1.1	0.9	-397.2000	0.0000	0.0000	0.0000;
	3048	2	0	0	0	0	3	1.0180016	-41.667111	500	27	1.1	0.9	39.1800	-12.0100	0.0000	0.0000;
	3049	1	10.58	3	0	0	3	1.0003414	-30.031027	115	27	1.1	0.9	-555.4700	97.8800	0.0000	0.0000;
	3050	1	0	0	0	65	3	1.0137598	-34.098699	230	28	1.1	0.9	-89.2800	-10.8400	0.0000	0.0000;
	3051	1	145.29	41.17	0	20	3	0.9953169	-36.015782	115	28	1.1	0.9	-129.8800	-5.1000	0.0000	0.0000;
	3052	1	8.08	2.29	0	0	3	0.9975297	-58.953369	115	28	1.1	0.9	31.0700	2.5300	0.0000	0.0000;
	3053	1	0	0	0	0	3	1.0259886	-27.208467	230	27	1.1	0.9	142.0400	-25.7800	0.0000	0.0000;
	3054	1	0	0	0	0	3	1.0057989	-26.722572	115	27	1.1	0.9	-339.4300	-6.1800	0.0000	0.0000;
	3055	2	0	0	0	0	3	1.04	-24.317883	13.8	27	1.1	0.9	143.9200	0.0000	0.0000	0.0000;
	3056	2	0	0	0	0	3	1.04	-21.727173	13.8	27	1.1	0.9	144.5100	0.0000	0.0000	0.0000;
	3057	2	0	0	0	0	3	1.04	-21.894762	13.8	27	1.1	0.9	144.4600	0.0000	0.0000	0.0000;
	3058	1	0	0	0	0	3	1.0289719	-24.015596	230	27	1.1	0.9	48.2500	-9.4600	0.0000	0.0000;
	3059	1	0	0	0	0	3	1.0078403	-17.326662	115	27	1.1	0.9	-66.1800	-9.6500	0.0000	0.0000;
	3060	2	0	0	0	0	3	1.04	-16.429085	18	27	1.1	0.9	49.4800	0.0000	0.0000	0.0000;
	3061	2	0	0	0	0	3	1.04	-18.606442	18	27	1.1	0.9	49.1700	0.0000	0.0000	0.0000;
	3062	2	0	0	0	0	3	1.04	-21.295915	18	27	1.1	0.9	48.8500	0.0000	0.0000	0.0000;
	3063	2	0	0	0	0	3	1.04	-20.13927	18	27	1.1	0.9	48.9900	0.0000	0.0000	0.0000;
	3064	1	0	0	0	0	3	1.0155387	-18.483476	115	27	1.1	0.9	-441.4000	5.3900	0.0000	0.0000;
	3065	2	0	0	0	0	3	1	-12.363914	18	27	1.1	0.9	-437.6300	0.0000	0.0000	0.0000;
	3066	1	22.03	6.24	0	0	3	1.0008227	-42.961112	115	28	1.1	0.9	-85.4000	67.1100	0.0000	0.0000;
	3067	1	0	0	0	0	3	1.0257376	-19.847452	115	27	1.1	0.9	-782.5300	55.0000	0.0000	0.0000;
	3068	2	0	0	0	0	3	1.04	-16.950774	20	27	1.1	0.9	-785.4300	0.0000	0.0000	0.0000;
	3069	1	3.81	1.08	0	0	3	0.9961637	-29.61393	115	27	1.1	0.9	-685.8600	165.6600	0.0000	0.0000;
	3070	1	0	0	0	0	3	1.0172657	-21.149531	115	27	1.1	0.9	-799.4800	89.3700	0.0000	0.0000;
	3071	2	0	0	0	0	3	1.0027765	-16.550419	24	27	1.1	0.9	-805.8400	691.4200	0.0000	0.0000;
	3072	1	5.98	1.7	0	0	3	1.0030653	-38.791736	115	27	1.1	0.9	181.7400	-57.1200	0.0000	0.0000;
	3073	1	0	0	0	0	3	1.0009688	-54.686037	115	28	1.1	0.9	12.6200	0.6400	0.0000	0.0000;
	3074	2	0	0	0	0	3	1	-52.163522	13.8	28	1.1	0.9	12.5700	0.0000	0.0000	0.0000;
	3075	1	12.18	3.45	0	0	3	0.9948176	-40.369102	115	28	1.1	0.9	-178.5200	76.9200	0.0000	0.0000;
	3076	1	10.79	3.06	0	0	3	0.9972582	-56.137487	115	28	1.1	0.9	15.6100	1.1400	0.0000	0.0000;
	3077	1	68.66	19.45	0	0	3	1.0003948	-28.088496	115	27	1.1	0.9	-880.5000	169.7900	0.0000	0.0000;
	3078	1	0	0	0	0	3	1.0182663	-25.88082	230	27	1.1	0.9	4.7500	-4.1300	0.0000	0.0000;
	3079	1	0	0	0	0	3	1.0142237	-24.090342	161	27	1.1	0.9	-85.4000	-5.4900	0.0000	0.0000;
	3080	1	0	0	0	0	3	1.0044855	-21.19207	115	27	1.1	0.9	-104.3300	-69.5800	0.0000	0.0000;
	3081	2	0	0	0	0	3	1.04	-19.785023	20	27	1.1	0.9	5.3500	0.0000	0.0000	0.0000;
	3082	1	0	0	0	0	3	1.0173671	-28.074949	230	27	1.1	0.9	287.3000	-82.0500	0.0000	0.0000;
	3083	1	0	0	0	0	3	1.0112436	-24.253755	115	27	1.1	0.9	-1601.1300	252.4600	0.0000	0.0000;
	3084	2	0	0	0	0	3	1	-18.202932	13.8	27	1.1	0.9	301.2900	0.0000	0.0000	0.0000;
	3085	1	0	0	0	0	3	1.0036466	-18.446704	115	27	1.1	0.9	-134.6000	-121.2200	0.0000	0.0000;
	3086	2	0	0	0	0	3	1	-11.49954	13.2	27	1.1	0.9	-114.7300	0.0000	0.0000	0.0000;
	3087	2	0	0	0	0	3	1.0036466	-18.446704	13.2	27	1.1	0.9	-134.6000	-121.2200	0.0000	0.0000;
	3088	1	0	0	0	34.55	3	1.02	-33.277037	230	27	1.1	0.9	73.3900	0.0000	0.0000	0.0000;
	3089	1	0	0	0	0	3	1.0194197	-35.945769	161	27	1.1	0.9	58.8600	-3.3500	0.0000	0.0000;
	3090	1	0	0	0	0	3	1.0195628	-36.614078	161	27	1.1	0.9	48.7100	-3.2100	0.0000	0.0000;
	3091	1	0	0	0	81.81	3	1.02	-37.51549	115	27	1.1	0.9	35.0700	0.0000	0.0000	0.0000;
	3092	2	0	0	0	0	3	1.04	-26.431971	13.8	27	1.1	0.9	73.1100	0.0000	0.0000	0.0000;
	3093	1	5.05	1.43	0	0	3	0.9973061	-58.33215	115	28	1.1	0.9	24.5700	2.0700	0.0000	0.0000;
	3094	1	0	0	0	0	3	1.0137247	-23.300486	115	27	1.1	0.9	-1040.0500	120.6800	0.0000	0.0000;
	3095	2	0	0	0	0	3	1.04	-15.360146	18	27	1.1	0.9	-1053.1300	0.0000	0.0000	0.0000;
	3096	1	0	0	0	0	3	1.0196496	-21.48134	230	27	1.1	0.9	-3.0100	1.0100	0.0000	0.0000;
	3097	1	0	0	0	0	3	1.0160797	-19.625366	115	27	1.1	0.9	-3.8300	0.7500	0.0000	0.0000;
	3098	2	0	0	0	0	3	1.04	-12.800146	13.8	27	1.1	0.9	-3.1100	0.0000	0.0000	0.0000;