function mpc = case3012wp
%CASE3012WP  Power flow data for Polish system - winter 2007-08 evening peak.
%   Please see CASEFORMAT for details on the case file format.
%
%   This case represents the Polish 400, 220 and 110 kV networks during
%   winter 2007-08 evening peak conditions.
%
%   This data was graciously provided by, and is distributed with the
%   permission of, Roman Korab <roman.korab@polsl.pl>.

%   MATPOWER

%% MATPOWER Case Format : Version 2
mpc.version = '2';

%%-----  Power Flow Data  -----%%
%% system MVA base
mpc.baseMVA = 100;

%% bus data
%	bus_i	type	Pd	Qd	Gs	Bs	area	Vm	Va	baseKV	zone	Vmax	Vmin
mpc.bus = [
	1	1	0	0	0	0	1	1.10687	-0.31071	220	1	1.11	0.95;
	2	1	0	0	0	0	1	1.10786	1.38118	220	1	1.11	0.95;
	3	1	0	0	0	0	1	1.06622	-30.75479	220	1	1.11	0.95;
	4	1	0	0	0	0	1	1.06616	-30.76377	220	1	1.11	0.95;
	5	1	0	0	0	0	1	1.07733	-32.99749	220	1	1.11	0.95;
	6	1	0	0	0	0	1	1.07571	-6.07319	220	1	1.11	0.95;
	7	1	0	0	0	0	1	1.07568	-6.07443	220	1	1.11	0.95;
	8	1	0	0	0	0	1	1.09064	-18.37688	220	1	1.11	0.95;
	9	1	0	0	0	0	1	1.09088	-18.36046	220	1	1.11	0.95;
	10	1	0	0	0	0	1	1.11	-21.78212	220	1	1.11	0.95;
	11	1	0	0	0	0	1	1.02566	-13.20685	400	1	1.05	0.95;
	12	1	0	0	0	0	1	1.02574	-13.19799	400	1	1.05	0.95;
	13	1	0	0	0	0	1	1.0119	-17.61355	400	1	1.05	0.95;
	14	1	0	0	0	0	1	1.04309	-18.20959	220	1	1.11	0.95;
	15	1	0	0	0	0	1	1.04329	-18.2057	220	1	1.11	0.95;
	16	1	0	0	0	0	1	1.0433	-18.19566	220	1	1.11	0.95;
	17	1	0	0	0	0	1	1.03119	-22.61825	220	1	1.11	0.95;
	18	1	0	0	0	0	1	1.03092	-22.24172	220	1	1.11	0.95;
	19	1	0	0	0	0	1	1.02695	-11.56537	400	1	1.05	0.95;
	20	1	0	0	0	0	1	1.027	-11.55538	400	1	1.05	0.95;
	21	1	0	0	0	0	1	1.022	-21.30132	400	1	1.05	0.95;
	22	1	0	0	0	0	1	1.0159	-17.33382	400	1	1.05	0.95;
	23	1	0	0	0	0	1	1.0159	-17.33382	400	1	1.05	0.95;
	24	2	10.05	20.1	0	0	1	1.08673	-25.1625	220	1	1.11	0.95;
	25	2	10.05	20.1	0	0	1	1.08668	-25.16218	220	1	1.11	0.95;
	26	1	0	0	0	0	1	1.08508	-5.08891	220	1	1.11	0.95;
	27	1	0	0	0	0	1	1.0852	-5.10279	220	1	1.11	0.95;
	28	1	0	0	0	0	1	1.04003	-20.22757	220	1	1.11	0.95;
	29	1	0	0	0	0	1	1.03998	-20.22535	220	1	1.11	0.95;
	30	1	0	0	0	0	1	1.04254	-17.70338	220	1	1.11	0.95;
	31	1	0	0	0	0	1	1.04248	-17.71626	220	1	1.11	0.95;
	32	1	0	0	0	0	1	1.08455	-2.6769	220	1	1.11	0.95;
	33	1	0	0	0	0	1	1.08445	-2.70092	220	1	1.11	0.95;
	34	1	0	0	0	0	1	1.01782	-15.36123	400	1	1.05	0.95;
	35	1	0	0	0	0	1	1.01778	-15.36625	400	1	1.05	0.95;
	36	1	0	0	0	0	1	1.00715	-18.54864	400	1	1.05	0.95;
	37	3	48.68	86.21	0	0	1	1.11	0	220	1	1.11	0.95;
	38	2	54.54	89.93	0	0	1	1.11	1.67906	220	1	1.11	0.95;
	39	2	20.1	40.19	0	0	1	1.11	1.6712	220	1	1.11	0.95;
	40	2	60.29	120.57	0	0	1	1.04749	0.16082	400	1	1.05	0.95;
	41	2	60.29	120.57	0	0	1	1.04746	0.1677	400	1	1.05	0.95;
	42	1	0	0	0	0	1	1.032	-19.50464	220	1	1.11	0.95;
	43	1	0	0	0	0	1	1.0319	-19.50833	220	1	1.11	0.95;
	44	1	0	0	0	0	1	1.05	-1.46667	400	1	1.05	0.95;
	45	1	0	0	0	0	1	1.04999	-1.4702	400	1	1.05	0.95;
	46	1	0	0	0	0	1	1.03961	-18.55938	220	1	1.11	0.95;
	47	1	0	0	0	0	1	1.0603	-8.38392	220	1	1.11	0.95;
	48	1	0	0	0	0	1	1.06031	-8.40113	220	1	1.11	0.95;
	49	1	0	0	0	0	1	1.09293	-12.14531	220	2	1.11	0.95;
	50	1	0	0	0	0	1	1.09117	-11.76281	220	2	1.11	0.95;
	51	1	0	0	0	0	1	1.10366	-10.12826	220	2	1.11	0.95;
	52	1	0	0	0	0	1	1.10363	-10.13266	220	2	1.11	0.95;
	53	1	0	0	0	0	1	1.07232	-14.11371	220	2	1.11	0.95;
	54	1	3.23	1	0	0	1	1.09961	-8.90014	220	2	1.11	0.95;
	55	1	0	0	0	0	1	1.09968	-8.89933	220	2	1.11	0.95;
	56	1	0	0	0	0	1	1.03605	-9.05729	400	2	1.05	0.95;
	57	2	26.12	60.29	0	0	1	1.10173	-10.25582	220	2	1.11	0.95;
	58	2	54.26	120.57	0	0	1	1.10171	-10.25621	220	2	1.11	0.95;
	59	2	13.06	30.14	0	0	1	1.10172	-10.25725	220	2	1.11	0.95;
	60	2	26.12	50.24	0	0	1	1.05	-8.39996	400	2	1.05	0.95;
	61	2	26.12	50.24	0	0	1	1.05	-8.39311	400	2	1.05	0.95;
	62	1	0	0	0	0	1	1.09422	-9.63373	220	2	1.11	0.95;
	63	1	0	0	0	0	1	1.04488	-12.96627	400	2	1.05	0.95;
	64	1	0	0	0	0	1	1.04488	-12.96741	400	2	1.05	0.95;
	65	1	0	0	0	0	1	1.04784	-9.93617	400	2	1.05	0.95;
	66	1	0	0	0	0	1	1.07841	-12.39445	220	2	1.11	0.95;
	67	1	0	0	0	0	1	1.07841	-12.3893	220	2	1.11	0.95;
	68	1	0	0	0	0	1	1.04573	-9.63176	400	2	1.05	0.95;
	69	1	0	0	0	0	1	1.04572	-9.63384	400	2	1.05	0.95;
	70	2	13.06	30.14	0	0	1	1.10839	-8.87769	220	2	1.11	0.95;
	71	2	13.06	30.14	0	0	1	1.10837	-8.87934	220	2	1.11	0.95;
	72	2	13.06	30.14	0	0	1	1.04326	-9.26509	400	2	1.05	0.95;
	73	2	26.12	60.29	0	0	1	1.04328	-9.2666	400	2	1.05	0.95;
	74	2	149.71	60.29	0	0	1	1.09864	-11.20347	220	2	1.11	0.95;
	75	1	29.14	10.05	0	0	1	1.09863	-11.2051	220	2	1.11	0.95;
	76	1	0	0	0	0	1	1.09665	-9.80009	220	2	1.11	0.95;
	77	1	0	0	0	0	1	1.09665	-9.79646	220	2	1.11	0.95;
	78	1	0	0	0	0	1	1.09751	-11.17469	220	2	1.11	0.95;
	79	1	0	0	0	0	1	1.09752	-11.17842	220	2	1.11	0.95;
	80	1	0	0	0	0	1	1.05	-10.59415	400	2	1.05	0.95;
	81	1	0	0	0	0	1	1.04997	-10.60572	400	2	1.05	0.95;
	82	1	0	0	0	0	1	1.10002	-11.23164	220	2	1.11	0.95;
	83	1	0	0	0	0	1	1.10068	-11.10542	220	2	1.11	0.95;
	84	1	0	0	0	0	1	1.07989	-11.21263	220	2	1.11	0.95;
	85	1	0	0	0	0	1	1.09346	-3.5943	220	3	1.11	0.95;
	86	1	9.35	0	0	0	1	1.09458	-8.18638	220	3	1.11	0.95;
	87	1	8.18	0	0	0	1	1.0946	-8.18664	220	3	1.11	0.95;
	88	1	0	0	0	0	1	1.09961	-2.00004	220	3	1.11	0.95;
	89	1	0	0	0	0	1	1.09973	-1.98735	220	3	1.11	0.95;
	90	1	0	0	0	0	1	1.10943	-1.60433	220	3	1.11	0.95;
	91	1	0	0	0	0	1	1.10945	-1.60664	220	3	1.11	0.95;
	92	1	0	0	0	0	1	1.07467	-3.37656	220	3	1.11	0.95;
	93	1	0	0	0	0	1	1.07442	-3.38318	220	3	1.11	0.95;
	94	2	28.13	70.33	0	0	1	1.10879	-1.16446	220	3	1.11	0.95;
	95	2	42.2	103.49	0	0	1	1.11	-0.70406	220	3	1.11	0.95;
	96	1	7.72	-24.99	0	0	1	1.09588	-2.13544	220	3	1.11	0.95;
	97	1	0	0	0	0	1	1.09587	-2.13643	220	3	1.11	0.95;
	98	2	32.15	142.68	0	0	1	1.05	-3.78388	400	3	1.05	0.95;
	99	1	0	0	0	0	1	1.04991	-3.81135	400	3	1.05	0.95;
	100	1	0	0	0	0	1	1.06008	-5.3044	220	3	1.11	0.95;
	101	1	0	0	0	0	1	1.10846	-1.10453	220	3	1.11	0.95;
	102	1	0	0	0	0	1	1.10846	-1.10183	220	3	1.11	0.95;
	103	1	45.11	7.94	0	0	1	1.09635	-3.36048	220	3	1.11	0.95;
	104	1	0	0	0	0	1	1.09629	-3.3649	220	3	1.11	0.95;
	105	1	0	0	0	0	1	1.10423	-0.96982	220	3	1.11	0.95;
	106	1	0	0	0	0	1	1.10416	-0.97182	220	3	1.11	0.95;
	107	1	0	0	0	0	1	1.10052	-2.95149	220	3	1.11	0.95;
	108	1	0	0	0	0	1	1.1005	-2.95733	220	3	1.11	0.95;
	109	1	0	0	0	0	1	1.04342	-1.54584	400	3	1.05	0.95;
	110	1	0	0	0	0	1	1.04342	-1.54731	400	3	1.05	0.95;
	111	1	0	0	0	0	1	1.10685	-0.81041	220	3	1.11	0.95;
	112	1	0	0	0	0	1	1.10687	-0.80889	220	3	1.11	0.95;
	113	1	0	0	0	0	1	1.08112	-2.74238	220	3	1.11	0.95;
	114	1	0	0	0	0	1	1.08102	-2.75523	220	3	1.11	0.95;
	115	2	29.36	18.51	0	0	1	1.10086	-2.24238	220	3	1.11	0.95;
	116	1	0	0	0	0	1	1.10083	-2.25484	220	3	1.11	0.95;
	117	1	0	0	0	0	1	1.09464	-8.16746	220	3	1.11	0.95;
	118	1	0	0	0	0	1	1.09463	-8.16449	220	3	1.11	0.95;
	119	1	0	0	0	0	1	1.06073	-3.70462	220	3	1.11	0.95;
	120	1	0	0	0	0	1	1.0607	-3.70595	220	3	1.11	0.95;
	121	2	0	0	0	0	1	1.10998	-0.81487	220	3	1.11	0.95;
	122	2	10.05	44.21	0	0	1	1.11	-0.81293	220	3	1.11	0.95;
	123	2	7.03	18.09	0	0	1	1.10998	-0.9014	220	3	1.11	0.95;
	124	2	8.04	21.1	0	0	1	1.11	-0.88955	220	3	1.11	0.95;
	125	1	0	0	0	0	1	1.09615	-3.6595	220	3	1.11	0.95;
	126	1	71.54	7.94	0	0	1	1.09618	-3.66739	220	3	1.11	0.95;
	127	1	0	0	0	0	1	1.07909	-3.98005	220	3	1.11	0.95;
	128	1	0	0	0	0	1	1.08915	-1.6916	220	3	1.11	0.95;
	129	1	0	0	0	0	1	1.08919	-1.6937	220	3	1.11	0.95;
	130	1	0	0	0	0	1	1.09446	-2.20106	220	3	1.11	0.95;
	131	1	0	0	0	0	1	1.09456	-2.19291	220	3	1.11	0.95;
	132	1	0	0	0	0	1	1.04145	-4.68941	400	3	1.05	0.95;
	133	1	0	0	0	0	1	1.04145	-4.68941	400	3	1.05	0.95;
	134	2	0	0	0	0	1	1.1076	-1.75405	220	3	1.11	0.95;
	135	2	9.04	20.1	0	0	1	1.10756	-1.75662	220	3	1.11	0.95;
	136	2	6.03	15.07	0	0	1	1.09273	-3.25359	220	3	1.11	0.95;
	137	1	0	0	0	0	1	1.09274	-3.26507	220	3	1.11	0.95;
	138	1	0	0	0	0	1	1.04773	-10.43139	400	3	1.05	0.95;
	139	1	0	0	0	0	1	1.04776	-10.43347	400	3	1.05	0.95;
	140	1	0	0	0	0	1	1.05	-5.23789	400	3	1.05	0.95;
	141	1	0	0	0	0	1	1.05	-5.23626	400	3	1.05	0.95;
	142	1	0	0	0	0	1	1.07651	-4.23696	220	3	1.11	0.95;
	143	1	0	0	0	0	1	1.07657	-4.2345	220	3	1.11	0.95;
	144	2	18.34	15.86	0	0	1	1.10995	-0.42094	220	3	1.11	0.95;
	145	2	41.01	43.07	0	0	1	1.11	-0.39755	220	3	1.11	0.95;
	146	2	28.13	66.31	0	0	1	1.03968	-3.73649	400	3	1.05	0.95;
	147	1	0	0	0	0	1	1.03973	-3.73553	400	3	1.05	0.95;
	148	1	0	0	0	0	1	1.09503	-3.45038	220	3	1.11	0.95;
	149	1	0	0	0	0	1	1.09511	-3.44329	220	3	1.11	0.95;
	150	1	0	0	0	0	1	1.10974	-0.88932	220	3	1.11	0.95;
	151	1	0	0	0	0	1	1.09847	-3.06801	220	3	1.11	0.95;
	152	2	0	0	0	0	1	1.0747	-3.37679	220	3	1.11	0.95;
	153	2	0	0	0	0	1	1.07446	-3.38341	220	3	1.11	0.95;
	154	2	7.84	20.1	0	0	1	1.0886	-12.28014	220	4	1.11	0.95;
	155	2	8.04	20.1	0	0	1	1.0886	-12.29183	220	4	1.11	0.95;
	156	1	0	0	0	0	1	1.06352	-13.64672	220	4	1.11	0.95;
	157	1	0	0	0	0	1	1.06349	-13.64822	220	4	1.11	0.95;
	158	1	0	0	0	0	1	1.05491	-15.40253	220	4	1.11	0.95;
	159	1	0	0	0	0	1	1.0809	-11.9306	220	4	1.11	0.95;
	160	1	0	0	0	0	1	1.08081	-11.94	220	4	1.11	0.95;
	161	1	0	0	0	0	1	1.02237	-11.56354	400	4	1.05	0.95;
	162	1	0	0	0	0	1	1.02234	-11.56615	400	4	1.05	0.95;
	163	1	0	0	0	0	1	1.02624	-27.57951	220	4	1.11	0.95;
	164	1	0	0	0	0	1	1.07708	-34.45732	220	4	1.11	0.95;
	165	1	0	0	0	0	1	1.07708	-34.45732	220	4	1.11	0.95;
	166	1	0	0	0	0	1	1.07169	-29.99065	220	4	1.11	0.95;
	167	1	0	0	0	0	1	1.07169	-29.99065	220	4	1.11	0.95;
	168	1	0	0	0	0	1	1.05429	-15.63955	220	4	1.11	0.95;
	169	2	0	0	0	0	1	1.08102	-17.43907	220	4	1.11	0.95;
	170	2	0	0	0	0	1	1.08099	-17.45362	220	4	1.11	0.95;
	171	1	0	0	0	0	1	1.11	-14.25484	220	4	1.11	0.95;
	172	2	12.06	30.14	0	0	1	1.10415	-32.35768	220	4	1.11	0.95;
	173	2	9.39	2.43	0	0	1	1.1041	-32.35811	220	4	1.11	0.95;
	174	2	12.06	30.14	0	0	1	1.03614	-29.56303	400	4	1.05	0.95;
	175	2	24.11	60.29	0	0	1	1.03615	-29.55912	400	4	1.05	0.95;
	176	1	0	0	0	0	1	0.9948	-26.47025	220	4	1.11	0.95;
	177	1	0	0	0	0	1	0.99492	-26.47877	220	4	1.11	0.95;
	178	1	0	0	0	0	1	1.04834	-21.80385	220	4	1.11	0.95;
	179	1	0	0	0	0	1	1.04835	-21.80804	220	4	1.11	0.95;
	180	2	26.12	64.3	0	0	1	1.11	-8.16009	220	4	1.11	0.95;
	181	2	26.12	64.3	0	0	1	1.11	-8.16811	220	4	1.11	0.95;
	182	2	26.12	64.51	0	0	1	1.11	-8.14562	220	4	1.11	0.95;
	183	2	26.12	64.51	0	0	1	1.0494	-7.52334	400	4	1.05	0.95;
	184	1	0	0	0	0	1	1.04937	-7.52475	400	4	1.05	0.95;
	185	1	0	0	0	0	1	1.08073	-34.49268	220	4	1.11	0.95;
	186	1	0	0	0	0	1	1.08073	-34.49268	220	4	1.11	0.95;
	187	1	0	0	0	0	1	1.00811	-12.6487	400	4	1.05	0.95;
	188	1	0	0	0	0	1	0.97886	-18.43994	400	4	1.05	0.95;
	189	1	0	0	0	0	1	1.02056	-10.67424	400	4	1.05	0.95;
	190	1	0	0	0	0	1	1.02058	-10.66628	400	4	1.05	0.95;
	191	2	12.06	30.14	0	0	1	1.08298	-17.58589	220	4	1.11	0.95;
	192	2	14.66	30.65	0	0	1	1.08268	-17.62769	220	4	1.11	0.95;
	193	2	38.18	64.3	0	0	1	1.03244	-10.99838	400	4	1.05	0.95;
	194	1	0	0	0	0	1	1.01417	-34.12922	220	4	1.11	0.95;
	195	1	0	0	0	0	1	1.01422	-34.13421	220	4	1.11	0.95;
	196	1	0	0	0	0	1	1.0765	-34.5414	220	4	1.11	0.95;
	197	1	0	0	0	0	1	1.07651	-34.54253	220	4	1.11	0.95;
	198	1	0	0	0	0	1	1.02063	-28.73479	220	4	1.11	0.95;
	199	1	0	0	0	0	1	1.02061	-28.7266	220	4	1.11	0.95;
	200	1	0	0	0	0	1	0.98033	-30.38903	400	4	1.05	0.95;
	201	1	0	0	0	0	1	0.98033	-30.38903	400	4	1.05	0.95;
	202	1	0	0	0	0	1	1.01651	-20.42501	220	4	1.11	0.95;
	203	1	0	0	0	0	1	1.01651	-20.41966	220	4	1.11	0.95;
	204	1	0	0	0	0	1	1.01058	-29.47283	220	4	1.11	0.95;
	205	1	0	0	0	0	1	1.06372	-13.17167	220	4	1.11	0.95;
	206	1	0	0	0	0	1	1.06373	-13.18391	220	4	1.11	0.95;
	207	1	0	0	0	0	1	1.05545	-11.52153	220	4	1.11	0.95;
	208	2	3.14	1.51	0	0	1	1.06751	-20.34103	220	4	1.11	0.95;
	209	1	0	0	0	0	1	1.0071	-21.69583	220	4	1.11	0.95;
	210	1	0	0	0	0	1	1.00709	-21.68746	220	4	1.11	0.95;
	211	1	0	0	0	0	1	1.04386	-26.87614	220	5	1.11	0.95;
	212	1	0	0	0	0	1	1.11	-31.12644	220	5	1.11	0.95;
	213	1	0	0	0	0	1	1.03205	-30.05015	400	5	1.05	0.95;
	214	1	0	0	0	0	1	1.03208	-30.05116	400	5	1.05	0.95;
	215	1	0	0	0	0	1	1.02334	-28.07644	400	5	1.05	0.95;
	216	1	0	0	0	0	1	1.02335	-28.08285	400	5	1.05	0.95;
	217	1	0	0	0	0	1	1.02952	-33.32654	400	5	1.05	0.95;
	218	1	0	0	0	0	1	1.02356	-31.92689	220	5	1.11	0.95;
	219	1	0	0	0	0	1	1.02356	-31.93251	220	5	1.11	0.95;
	220	1	0	0	0	0	1	1.05502	-27.06468	220	5	1.11	0.95;
	221	1	0	0	0	0	1	1.05496	-27.0685	220	5	1.11	0.95;
	222	1	0	0	0	0	1	1.00615	-24.40357	400	5	1.05	0.95;
	223	1	0	0	0	0	1	1.00615	-24.40357	400	5	1.05	0.95;
	224	1	0	0	0	0	1	1.0292	-30.07108	400	5	1.05	0.95;
	225	1	0	0	0	0	1	1.0517	-25.99674	220	5	1.11	0.95;
	226	1	0	0	0	0	1	1.05171	-25.99001	220	5	1.11	0.95;
	227	1	0	0	0	0	1	1.07065	-29.65174	220	5	1.11	0.95;
	228	1	0	0	0	0	1	1.06046	-30.31094	220	5	1.11	0.95;
	229	1	0	0	0	0	1	1.02718	-30.08211	400	5	1.05	0.95;
	230	1	0	0	0	0	1	1.02714	-30.08242	400	5	1.05	0.95;
	231	1	0	0	0	0	1	1.05	-33.4206	400	5	1.05	0.95;
	232	1	0	0	0	0	1	1.05293	-30.39317	220	5	1.11	0.95;
	233	1	0	0	0	0	1	1.05301	-30.3895	220	5	1.11	0.95;
	234	1	0	0	0	70	1	1.03626	-29.27812	400	5	1.25	0.75;
	235	1	0	0	0	0	1	1.03625	-29.28116	400	5	1.05	0.95;
	236	1	0	0	0	0	1	1.02938	-28.18775	220	5	1.11	0.95;
	237	1	0	0	0	0	1	1.02933	-28.18704	220	5	1.11	0.95;
	238	1	0	0	0	0	1	1.03234	-26.20743	220	5	1.11	0.95;
	239	1	0	0	0	0	1	1.03226	-26.22273	220	5	1.11	0.95;
	240	2	2.01	40.19	0	0	1	1.02222	-27.35991	400	5	1.05	0.95;
	241	2	5.55	30.14	0	0	1	1.02222	-27.3569	400	5	1.05	0.95;
	242	1	0	0	0	0	1	1.06862	-32.33784	220	5	1.11	0.95;
	243	1	0	0	0	0	1	1.06873	-32.33242	220	5	1.11	0.95;
	244	2	0	0	0	0	0	1.11	-2.26558	220	0	1.11	0.95;
	245	1	9.94	2.01	0	0	1	1.0598	-27.47615	110	1	1.12	0.95;
	246	1	8.89	0	0	0	1	1.06878	-35.16503	110	1	1.12	0.95;
	247	1	8.89	0	0	0	1	1.06867	-35.15648	110	1	1.12	0.95;
	248	1	6.09	1	0	0	1	1.11188	-21.26523	110	1	1.12	0.95;
	249	1	6.09	2.01	0	0	1	1.11193	-21.28907	110	1	1.12	0.95;
	250	1	2.94	2.51	0	0	1	1.0369	-26.11152	110	1	1.12	0.95;
	251	1	6.29	5.83	0	0	1	1.03685	-26.11407	110	1	1.12	0.95;
	252	1	5.18	1.31	0	0	1	1.0894	-2.22548	110	1	1.12	0.95;
	253	1	6.2	1	0	0	1	1.07826	-3.38376	110	1	1.12	0.95;
	254	2	-11.53	119.74	0	0	1	1.10528	-24.32495	110	1	1.12	0.95;
	255	1	23.02	2.01	0	0	1	1.10547	-24.52431	110	1	1.12	0.95;
	256	1	14.65	1.51	0	0	1	1.10662	-24.73563	110	1	1.12	0.95;
	257	1	16.74	0	0	0	1	1.10644	-24.88734	110	1	1.12	0.95;
	258	1	26.16	3.01	0	0	1	1.10496	-25.02851	110	1	1.12	0.95;
	259	1	11.51	2.01	0	0	1	1.10514	-24.50349	110	1	1.12	0.95;
	260	1	5.23	1	0	0	1	1.10468	-24.96311	110	1	1.12	0.95;
	261	1	5.23	1	0	0	1	1.1046	-24.94136	110	1	1.12	0.95;
	262	1	0	0	0	0	1	1.10653	-24.98207	110	1	1.12	0.95;
	263	1	7.72	1.51	0	0	1	1.09924	-24.35413	110	1	1.12	0.95;
	264	1	5.59	1	0	0	1	1.09931	-24.34805	110	1	1.12	0.95;
	265	1	5.05	0.5	0	0	1	1.10768	-23.54858	110	1	1.12	0.95;
	266	1	5.05	0.5	0	0	1	1.1076	-23.57077	110	1	1.12	0.95;
	267	2	0.06	0	0	0	1	1.05826	-18.51816	110	1	1.12	0.95;
	268	2	10.87	2.51	0	0	1	1.07506	-10.60506	110	1	1.12	0.95;
	269	1	20.71	5.63	0	0	1	1.11088	-23.3054	110	1	1.12	0.95;
	270	1	0.91	0.4	0	0	1	1.09075	-4.65123	110	1	1.12	0.95;
	271	1	1.21	-0.9	0	0	1	1.0872	-0.50335	110	1	1.12	0.95;
	272	1	5.66	0.3	0	0	1	1.09854	-24.75344	110	1	1.12	0.95;
	273	1	5.23	0.2	0	0	1	1.10015	-32.20886	110	1	1.12	0.95;
	274	1	24.07	2.01	0	0	1	1.08464	-26.28132	110	1	1.12	0.95;
	275	1	4.17	2.11	0	0	1	1.10917	-9.31584	110	1	1.12	0.95;
	276	1	8.33	1.51	0	0	1	1.05962	-14.4717	110	1	1.12	0.95;
	277	1	3.15	0.5	0	0	1	1.11957	-23.46357	110	1	1.12	0.95;
	278	2	3.86	1.61	0	0	1	1.11543	-8.95777	110	1	1.12	0.95;
	279	2	3.86	1.61	0	0	1	1.11989	-10.32493	110	1	1.12	0.95;
	280	1	24.36	6.53	0	0	1	1.09723	-23.79866	110	1	1.12	0.95;
	281	1	10.36	2.21	0	0	1	1.07942	-3.24686	110	1	1.12	0.95;
	282	1	6.09	0.5	0	0	1	1.07456	-13.12454	110	1	1.12	0.95;
	283	1	3.25	0.2	0	0	1	1.07455	-13.11849	110	1	1.12	0.95;
	284	1	13.51	7.03	0	0	1	1.0745	-2.2326	110	1	1.12	0.95;
	285	1	20.72	11.55	0	0	1	1.0744	-2.25543	110	1	1.12	0.95;
	286	1	10.31	0.4	0	0	1	1.08108	-28.77144	110	1	1.12	0.95;
	287	1	12.6	4.52	0	0	1	1.11103	-8.72336	110	1	1.12	0.95;
	288	1	9.6	0.8	0	0	1	1.08032	-29.03292	110	1	1.12	0.95;
	289	1	0	0	0	0	1	1.08031	-29.03735	110	1	1.12	0.95;
	290	1	6.28	0.3	0	0	1	1.08594	-29.05077	110	1	1.12	0.95;
	291	1	5.23	0	0	0	1	1.0796	-29.28297	110	1	1.12	0.95;
	292	1	4.19	0	0	0	1	1.07955	-29.28738	110	1	1.12	0.95;
	293	1	1.05	0	0	0	1	1.08863	-27.7686	110	1	1.12	0.95;
	294	1	0	0	0	0	1	1.08868	-27.7935	110	1	1.12	0.95;
	295	2	0.23	0.4	0	0	1	1.09445	-25.72919	110	1	1.12	0.95;
	296	1	0	0	0	0	1	1.09449	-25.75	110	1	1.12	0.95;
	297	1	9.42	2.01	0	0	1	1.06854	-32.62676	110	1	1.12	0.95;
	298	1	0.3	0.1	0	0	1	1.10393	-5.20295	110	1	1.12	0.95;
	299	1	0.3	0.1	0	0	1	1.10025	-5.1172	110	1	1.12	0.95;
	300	1	13.51	7.64	0	0	1	1.10173	-5.28144	110	1	1.12	0.95;
	301	1	0.51	0.2	0	0	1	1.10022	-5.11879	110	1	1.12	0.95;
	302	1	7.78	0.1	0	0	1	1.07888	-31.06533	110	1	1.12	0.95;
	303	1	8.99	0.1	0	0	1	1.07891	-31.07775	110	1	1.12	0.95;
	304	1	6.71	2.21	0	0	1	1.11155	-9.6863	110	1	1.12	0.95;
	305	1	6.7	0.6	0	0	1	1.10282	-5.45313	110	1	1.12	0.95;
	306	1	3.66	0.3	0	0	1	1.10283	-5.43433	110	1	1.12	0.95;
	307	1	4.16	1	0	0	1	1.11613	-26.1945	110	1	1.12	0.95;
	308	1	0	0	0	0	1	1.08666	-0.47112	110	1	1.12	0.95;
	309	1	0	0	0	0	1	1.08672	-0.49322	110	1	1.12	0.95;
	310	2	33.84	48.83	0	0	1	1	3.28552	24	1	1.12	0.95;
	311	1	6.28	0.5	0	0	1	1.09647	-33.75971	110	1	1.12	0.95;
	312	1	6.28	0.5	0	0	1	1.09643	-33.77946	110	1	1.12	0.95;
	313	1	4.71	0.5	0	0	1	1.09783	-33.73775	110	1	1.12	0.95;
	314	1	2.62	0.5	0	0	1	1.10834	-32.63587	110	1	1.12	0.95;
	315	1	0	0	0	45	1	1.08698	-32.99455	16	1	1.25	0.75;
	316	2	0	-0.02	0	0	1	1.06162	-25.09631	110	1	1.12	0.95;
	317	1	17.79	2.51	0	0	1	1.1041	-25.07208	110	1	1.12	0.95;
	318	1	3.66	0.5	0	0	1	1.06109	-37.60014	110	1	1.12	0.95;
	319	1	6.37	0.5	0	0	1	1.11528	-22.20018	110	1	1.12	0.95;
	320	1	24.36	6.53	0	0	1	1.07426	-16.64133	110	1	1.12	0.95;
	321	1	26.39	6.23	0	0	1	1.09963	-23.97438	110	1	1.12	0.95;
	322	1	17.27	1	0	0	1	1.07335	-36.88841	110	1	1.12	0.95;
	323	1	43.95	2.51	0	0	1	1.09312	-32.27825	110	1	1.12	0.95;
	324	1	5.76	0.4	0	0	1	1.09638	-32.3692	110	1	1.12	0.95;
	325	1	4.16	1	0	0	1	1.07422	-2.20224	110	1	1.12	0.95;
	326	1	4.88	1.21	0	0	1	1.07414	-2.21909	110	1	1.12	0.95;
	327	1	13.11	4.22	0	0	1	1.10283	-9.97055	110	1	1.12	0.95;
	328	1	8.37	1	0	0	1	1.06234	-37.81147	110	1	1.12	0.95;
	329	1	10.15	1	0	0	1	1.11522	-21.65948	110	1	1.12	0.95;
	330	1	12.18	2.01	0	0	1	1.10972	-21.00921	110	1	1.12	0.95;
	331	1	3.84	1	0	0	1	1.07671	-30.13139	110	1	1.12	0.95;
	332	1	31.28	22.1	0	0	1	1.08513	-0.84811	110	1	1.12	0.95;
	333	1	22.75	13.06	0	0	1	1.07939	-2.85587	110	1	1.12	0.95;
	334	1	38.41	12.06	0	0	1	1.08615	-0.56772	110	1	1.12	0.95;
	335	1	5.08	2.51	0	0	1	1.09961	-23.10749	110	1	1.12	0.95;
	336	1	13.04	0.7	0	0	1	1.10665	-24.44525	110	1	1.12	0.95;
	337	1	2.93	0.4	0	0	1	1.11521	-21.56597	110	1	1.12	0.95;
	338	1	7.78	1	0	0	1	1.11525	-21.57644	110	1	1.12	0.95;
	339	1	16.74	1.51	0	0	1	1.08523	-26.42824	110	1	1.12	0.95;
	340	1	7.32	0.4	0	0	1	1.06047	-37.32696	110	1	1.12	0.95;
	341	1	3.14	0.1	0	0	1	1.06051	-37.32034	110	1	1.12	0.95;
	342	1	9.08	2.11	0	0	1	1.10835	-21.81905	110	1	1.12	0.95;
	343	1	9.08	2.11	0	0	1	1.10828	-21.81294	110	1	1.12	0.95;
	344	1	0.3	0	0	0	1	1.09679	-23.95109	110	1	1.12	0.95;
	345	1	0.81	0.2	0	0	1	1.11647	-21.30193	110	1	1.12	0.95;
	346	1	0	0	0	0	1	1.10865	-22.32118	110	1	1.12	0.95;
	347	1	11.69	5.63	0	0	1	1.10902	-8.54829	110	1	1.12	0.95;
	348	1	7.82	3.72	0	0	1	1.11134	-9.11067	110	1	1.12	0.95;
	349	1	4.88	0.3	0	0	1	1.07954	-10.22441	110	1	1.12	0.95;
	350	1	3.86	0.6	0	0	1	1.07959	-10.23145	110	1	1.12	0.95;
	351	1	3.66	0.5	0	0	1	1.10142	-26.32366	110	1	1.12	0.95;
	352	1	9.42	0.5	0	0	1	1.09764	-28.46343	110	1	1.12	0.95;
	353	1	11.17	2.01	0	0	1	1.10843	-22.11537	110	1	1.12	0.95;
	354	1	13.2	2.01	0	0	1	1.08852	-22.363	110	1	1.12	0.95;
	355	1	23.87	14.07	0	0	1	1.0744	-2.81097	110	1	1.12	0.95;
	356	1	10.36	5.02	0	0	1	1.07434	-2.80025	110	1	1.12	0.95;
	357	1	2.02	0.4	0	0	1	1.08849	-0.66352	110	1	1.12	0.95;
	358	1	0	0	0	0	1	1.08715	-0.85789	110	1	1.12	0.95;
	359	1	13.82	4.92	0	0	1	1.10911	-8.58413	110	1	1.12	0.95;
	360	1	3.05	1	0	0	1	1.09921	-23.25652	110	1	1.12	0.95;
	361	1	14.02	1.81	0	0	1	1.0911	-10.56029	110	1	1.12	0.95;
	362	1	0	0	0	0	1	1.09279	-31.55095	110	1	1.12	0.95;
	363	1	11.51	0.2	0	0	1	1.09287	-31.57322	110	1	1.12	0.95;
	364	1	4.71	0	0	0	1	1.09877	-27.68586	110	1	1.12	0.95;
	365	1	4.97	1.31	0	0	1	1.09281	-24.67367	110	1	1.12	0.95;
	366	1	5.56	0.2	0	0	1	1.09497	-14.72992	110	1	1.12	0.95;
	367	1	24.36	7.03	0	0	1	1.0901	-22.18599	110	1	1.12	0.95;
	368	1	15.23	1.61	0	0	1	1.118	-21.36738	110	1	1.12	0.95;
	369	1	11.89	3.82	0	0	1	1.1111	-8.51705	110	1	1.12	0.95;
	370	1	6.5	1.21	0	0	1	1.06279	-25.76766	110	1	1.12	0.95;
	371	1	8.19	0.1	0	0	1	1.1004	-25.13789	110	1	1.12	0.95;
	372	1	16.27	0.5	0	0	1	1.09525	-14.62633	110	1	1.12	0.95;
	373	1	5.69	0.5	0	0	1	1.09483	-9.22741	110	1	1.12	0.95;
	374	1	9.75	3.52	0	0	1	1.11353	-8.89553	110	1	1.12	0.95;
	375	1	18.09	6.53	0	0	1	1.11832	-10.42885	110	1	1.12	0.95;
	376	2	16.74	0	0	0	1	1.10193	-26.41819	110	1	1.12	0.95;
	377	1	5.69	0.5	0	0	1	1.10876	-9.3716	110	1	1.12	0.95;
	378	1	0	0	0	0	1	1.0857	-5.26957	110	1	1.12	0.95;
	379	2	19.02	6.91	0	0	1	1.11132	-8.50417	110	1	1.12	0.95;
	380	1	18.09	5.93	0	0	1	1.11111	-9.6757	110	1	1.12	0.95;
	381	1	23.78	7.74	0	0	1	1.10927	-8.49297	110	1	1.12	0.95;
	382	1	25.81	8.44	0	0	1	1.11481	-8.84209	110	1	1.12	0.95;
	383	2	49.45	18.99	0	0	1	1.11054	-8.64265	110	1	1.12	0.95;
	384	2	30.41	12.76	0	0	1	1.11743	-8.67343	110	1	1.12	0.95;
	385	2	30.41	12.76	0	0	1	1.11752	-9.66341	110	1	1.12	0.95;
	386	1	0	0	0	0	1	1.11401	-8.87637	110	1	1.12	0.95;
	387	2	32.5	14.27	0	0	1	1.1113	-8.33583	110	1	1.12	0.95;
	388	2	13.89	6.13	0	0	1	1.11386	-8.86727	110	1	1.12	0.95;
	389	1	6.57	1	0	0	1	1.10279	-13.23027	110	1	1.12	0.95;
	390	1	8.49	0.9	0	0	1	1.10276	-13.24654	110	1	1.12	0.95;
	391	1	2.09	0	0	0	1	1.0927	-25.98099	110	1	1.12	0.95;
	392	1	4.67	0	0	0	1	1.0936	-25.56166	110	1	1.12	0.95;
	393	1	12.59	2.41	0	0	1	1.09642	-25.11172	110	1	1.12	0.95;
	394	1	15.53	4.02	0	0	1	1.09378	-25.55532	110	1	1.12	0.95;
	395	1	0	0	0	0	1	1.09381	-25.54147	110	1	1.12	0.95;
	396	1	9.14	2.41	0	0	1	1.10812	-21.44691	110	1	1.12	0.95;
	397	1	7.51	1.91	0	0	1	1.1081	-21.43392	110	1	1.12	0.95;
	398	1	14.23	4.62	0	0	1	1.10944	-8.52349	110	1	1.12	0.95;
	399	2	21.13	6.83	0	0	1	1.10799	-8.61176	110	1	1.12	0.95;
	400	1	17.79	1	0	0	1	1.09632	-28.84116	110	1	1.12	0.95;
	401	1	26.01	9.34	0	0	1	1.11242	-8.90154	110	1	1.12	0.95;
	402	1	17.38	6.23	0	0	1	1.10887	-8.75804	110	1	1.12	0.95;
	403	1	7.42	2.71	0	0	1	1.1102	-8.7993	110	1	1.12	0.95;
	404	1	10.46	0	0	0	1	1.09777	-28.55444	110	1	1.12	0.95;
	405	1	5.23	0	0	0	1	1.09774	-28.57828	110	1	1.12	0.95;
	406	1	10.66	1	0	0	1	1.09909	-24.97745	110	1	1.12	0.95;
	407	1	8.12	1	0	0	1	1.09905	-24.98763	110	1	1.12	0.95;
	408	1	17.88	5.83	0	0	1	1.11042	-8.77712	110	1	1.12	0.95;
	409	1	9.34	1.81	0	0	1	1.10041	-9.57755	110	1	1.12	0.95;
	410	1	5.18	0.4	0	0	1	1.09955	-9.66472	110	1	1.12	0.95;
	411	1	51.92	16.88	0	0	1	1.10502	-8.83637	110	1	1.12	0.95;
	412	1	11.98	2.41	0	0	1	1.07381	-20.21334	110	1	1.12	0.95;
	413	1	8.83	2.31	0	0	1	1.07381	-20.22655	110	1	1.12	0.95;
	414	1	2.34	0.9	0	0	1	1.09716	-25.11683	110	1	1.12	0.95;
	415	1	10.66	2.01	0	0	1	1.09717	-25.11594	110	1	1.12	0.95;
	416	1	0	0	0	0	1	1.10317	-9.97982	110	1	1.12	0.95;
	417	1	9.6	0.8	0	0	1	1.07811	-32.0508	110	1	1.12	0.95;
	418	1	17.58	5.73	0	0	1	1.11021	-9.57527	110	1	1.12	0.95;
	419	1	6.09	2.61	0	0	1	1.07354	-29.47436	110	1	1.12	0.95;
	420	1	6.9	2.01	0	0	1	1.07345	-29.47603	110	1	1.12	0.95;
	421	1	20.69	6.23	0	0	1	1.11646	-21.28062	110	1	1.12	0.95;
	422	1	20.69	6.23	0	0	1	1.10163	-22.33697	110	1	1.12	0.95;
	423	1	5.23	0	0	0	1	1.09642	-25.55662	110	1	1.12	0.95;
	424	1	1.22	0.2	0	0	1	1.0755	-24.20059	110	1	1.12	0.95;
	425	1	0	0	0	0	1	1.11639	-21.45858	110	1	1.12	0.95;
	426	1	0	0	0	0	1	1.10743	-20.67992	110	1	1.12	0.95;
	427	1	0	0	0	45	1	1.11498	-21.77627	16	1	1.25	0.75;
	428	1	0	0	0	0	1	0.99609	-17.61355	32	1	1.25	0.75;
	429	1	20.3	4.02	0	0	1	1.04984	-18.38193	110	1	1.12	0.95;
	430	1	22.33	4.02	0	0	1	1.0867	-22.49569	110	1	1.12	0.95;
	431	1	0	0	0	0	1	1.1166	-21.46282	110	1	1.12	0.95;
	432	1	6.28	0.5	0	0	1	1.06763	-37.49335	110	1	1.12	0.95;
	433	2	12.08	3.62	0	0	1	1.09946	-26.57919	110	1	1.12	0.95;
	434	1	15.16	0.8	0	0	1	1.07233	-31.51482	110	1	1.12	0.95;
	435	1	19.51	6.33	0	0	1	1.11146	-8.48963	110	1	1.12	0.95;
	436	1	15.54	2.61	0	0	1	1.10812	-22.00687	110	1	1.12	0.95;
	437	1	0	0	0	0	1	1.10971	-21.03804	110	1	1.12	0.95;
	438	1	7.85	0.5	0	0	1	1.09264	-28.96429	110	1	1.12	0.95;
	439	1	3.53	1.11	0	0	1	1.11167	-21.84875	110	1	1.12	0.95;
	440	1	0	0	0	0	1	1.11208	-21.47381	110	1	1.12	0.95;
	441	1	0	0	0	0	1	1.11207	-21.46844	110	1	1.12	0.95;
	442	1	0	0	0	15	1	0.99214	-22.58189	16	1	1.25	0.75;
	443	1	0	0	0	15	1	0.99431	-22.23735	16	1	1.25	0.75;
	444	1	10.66	3.01	0	0	1	1.07101	-24.70904	110	1	1.12	0.95;
	445	1	6.4	0.8	0	0	1	1.09648	-24.21165	110	1	1.12	0.95;
	446	1	3.55	0.5	0	0	1	1.09646	-24.20581	110	1	1.12	0.95;
	447	1	5.96	0.9	0	0	1	1.11833	-22.7489	110	1	1.12	0.95;
	448	1	6.17	0.9	0	0	1	1.11835	-22.75299	110	1	1.12	0.95;
	449	1	0	0	0	0	1	1.1135	-20.58702	110	1	1.12	0.95;
	450	1	0	0	0	0	1	1.11352	-20.5146	110	1	1.12	0.95;
	451	1	0	0	0	0	1	1.11345	-20.56195	110	1	1.12	0.95;
	452	1	0	0	0	0	1	0.9815	-21.30132	16	1	1.25	0.75;
	453	1	6.3	1.31	0	0	1	1.07493	-13.55774	110	1	1.12	0.95;
	454	1	8.93	1.51	0	0	1	1.11322	-26.54392	110	1	1.12	0.95;
	455	2	45.13	21.81	0	0	1	1.11245	-21.25549	110	1	1.12	0.95;
	456	2	32.5	15.68	0	0	1	1.11895	-21.84018	110	1	1.12	0.95;
	457	2	94.17	53.55	0	0	1	1.11707	-19.87229	110	1	1.12	0.95;
	458	2	77.9	45.62	0	0	1	1.11493	-20.45074	110	1	1.12	0.95;
	459	1	0	0	0	0	1	1.11324	-23.97698	110	1	1.12	0.95;
	460	1	0	0	0	0	1	1.11307	-24.01111	110	1	1.12	0.95;
	461	1	10.41	0.3	0	0	1	1.08947	-26.80247	110	1	1.12	0.95;
	462	1	14.25	1.21	0	0	1	1.08309	-28.24478	110	1	1.12	0.95;
	463	1	6.17	0.3	0	0	1	1.08308	-28.26109	110	1	1.12	0.95;
	464	1	3.66	0.3	0	0	1	1.07792	-33.59136	110	1	1.12	0.95;
	465	1	0	0	0	0	1	1.09476	-29.29305	110	1	1.12	0.95;
	466	1	11.67	2.01	0	0	1	1.09066	-25.81629	110	1	1.12	0.95;
	467	1	11.17	2.51	0	0	1	1.09066	-25.81704	110	1	1.12	0.95;
	468	1	6.6	1.11	0	0	1	1.0882	-10.89997	110	1	1.12	0.95;
	469	1	4.77	1.11	0	0	1	1.10353	-10.76078	110	1	1.12	0.95;
	470	1	15.7	1	0	0	1	1.07656	-35.66757	110	1	1.12	0.95;
	471	1	9.9	0.5	0	0	1	1.0742	-31.15026	110	1	1.12	0.95;
	472	1	7.21	0.9	0	0	1	1.07482	-13.01214	110	1	1.12	0.95;
	473	1	7.82	1.41	0	0	1	1.07492	-13.03123	110	1	1.12	0.95;
	474	1	7.61	2.51	0	0	1	1.09155	-25.84624	110	1	1.12	0.95;
	475	1	15.63	3.62	0	0	1	1.11452	-26.07161	110	1	1.12	0.95;
	476	1	11.78	2.61	0	0	1	1.11563	-26.15736	110	1	1.12	0.95;
	477	1	25.07	7.44	0	0	1	1.07801	-29.44179	110	1	1.12	0.95;
	478	2	-7.73	18	0	0	1	1.11867	-25.86398	110	1	1.12	0.95;
	479	2	13.61	11.34	0	0	1	1.10485	-27.89938	110	1	1.12	0.95;
	480	1	2.62	0.2	0	0	1	1.09236	-30.23172	110	1	1.12	0.95;
	481	1	18.68	5.63	0	0	1	1.10932	-22.02454	110	1	1.12	0.95;
	482	2	22.56	7.33	0	0	1	1.10618	-12.32236	110	1	1.12	0.95;
	483	1	18.27	5.63	0	0	1	1.10989	-22.20986	110	1	1.12	0.95;
	484	1	12.5	5.22	0	0	1	1.1131	-8.35197	110	1	1.12	0.95;
	485	1	5.39	2.21	0	0	1	1.11176	-8.42251	110	1	1.12	0.95;
	486	1	0	0	0	0	1	1.08384	-2.76103	110	1	1.12	0.95;
	487	1	0	0	0	0	1	1.08711	-0.85675	110	1	1.12	0.95;
	488	1	4.45	0.2	0	0	1	1.11617	-21.61684	110	1	1.12	0.95;
	489	1	2.84	1	0	0	1	1.0956	-28.08122	110	1	1.12	0.95;
	490	1	7.21	1	0	0	1	1.1023	-11.75773	110	1	1.12	0.95;
	491	1	8.59	0.8	0	0	1	1.12	-22.70116	110	1	1.12	0.95;
	492	1	5.36	0.2	0	0	1	1.12	-21.036	110	1	1.12	0.95;
	493	1	0	0	0	0	1	1.11534	-21.41923	110	1	1.12	0.95;
	494	1	0	0	0	0	1	1.11506	-23.35769	110	1	1.12	0.95;
	495	1	5.55	1.21	0	0	1	1.0928	-24.16946	110	1	1.12	0.95;
	496	1	5.55	1.21	0	0	1	1.09285	-24.18824	110	1	1.12	0.95;
	497	1	4.98	0.6	0	0	1	1.07716	-13.69774	110	1	1.12	0.95;
	498	1	16.24	4.02	0	0	1	1.11846	-21.39756	110	1	1.12	0.95;
	499	1	38.78	8.04	0	0	1	1.11421	-20.69035	110	1	1.12	0.95;
	500	2	12.19	1.31	0	0	1	1.09306	-5.44157	110	1	1.12	0.95;
	501	1	10.36	1.11	0	0	1	1.09739	-3.76618	110	1	1.12	0.95;
	502	1	14.13	0	0	0	1	1.08435	-33.00907	110	1	1.12	0.95;
	503	1	12.39	1.51	0	0	1	1.09164	-5.24324	110	1	1.12	0.95;
	504	1	15.26	1	0	0	1	1.11868	-22.78679	110	1	1.12	0.95;
	505	1	12.89	2.21	0	0	1	1.06713	-17.1444	110	1	1.12	0.95;
	506	1	3.03	0.3	0	0	1	1.11501	-23.35699	110	1	1.12	0.95;
	507	1	0	0	0	0	1	1.11496	-23.37102	110	1	1.12	0.95;
	508	1	4.19	0	0	0	1	1.08581	-28.25931	110	1	1.12	0.95;
	509	1	0	0	0	0	1	1.12	-20.58167	110	1	1.12	0.95;
	510	1	0	0	0	0	1	1.11907	-22.45181	110	1	1.12	0.95;
	511	1	0	0	0	0	1	0.99141	-18.54864	32	1	1.25	0.75;
	512	1	25.29	3.22	0	0	1	1.09404	-3.59546	110	1	1.12	0.95;
	513	1	7.21	1.61	0	0	1	1.0907	-25.85667	110	1	1.12	0.95;
	514	1	9.1	1	0	0	1	1.11932	-22.75231	110	1	1.12	0.95;
	515	1	11.22	0.7	0	0	1	1.09611	-24.77094	110	1	1.12	0.95;
	516	1	11.02	1.11	0	0	1	1.09612	-24.75943	110	1	1.12	0.95;
	517	1	7.11	1	0	0	1	1.10287	-11.71836	110	1	1.12	0.95;
	518	1	9.44	5.02	0	0	1	1.11211	-26.16106	110	1	1.12	0.95;
	519	1	21.19	6.93	0	0	1	1.10433	-22.40603	110	1	1.12	0.95;
	520	1	21.19	6.93	0	0	1	1.10425	-22.41791	110	1	1.12	0.95;
	521	1	16.24	2.01	0	0	1	1.09839	-23.378	110	1	1.12	0.95;
	522	2	9.14	2.01	0	0	1	1.10119	-22.82512	110	1	1.12	0.95;
	523	1	18.68	3.62	0	0	1	1.08343	-29.18755	110	1	1.12	0.95;
	524	1	12.03	0.6	0	0	1	1.09557	-26.55654	110	1	1.12	0.95;
	525	1	22.74	4.62	0	0	1	1.07686	-24.06816	110	1	1.12	0.95;
	526	1	15.84	4.02	0	0	1	1.10344	-22.43675	110	1	1.12	0.95;
	527	2	15.75	5.63	0	0	1	1.11076	-8.56916	110	1	1.12	0.95;
	528	1	0	0	0	0	1	1.11077	-8.5692	110	1	1.12	0.95;
	529	1	12.39	1.41	0	0	1	1.05895	-3.84174	110	1	1.12	0.95;
	530	1	7.78	0.1	0	0	1	1.11714	-23.06827	110	1	1.12	0.95;
	531	1	16.45	1.61	0	0	1	1.08468	-12.97277	110	1	1.12	0.95;
	532	2	13.84	4.12	0	0	1	1.10157	-24.88004	110	1	1.12	0.95;
	533	1	11.93	3.62	0	0	1	1.10154	-24.86032	110	1	1.12	0.95;
	534	1	9.45	3.11	0	0	1	1.11329	-8.90206	110	1	1.12	0.95;
	535	1	6.09	3.22	0	0	1	1.05984	-25.24174	110	1	1.12	0.95;
	536	1	7.11	2.31	0	0	1	1.07244	-29.77812	110	1	1.12	0.95;
	537	1	10.87	2.61	0	0	1	1.0598	-3.79577	110	1	1.12	0.95;
	538	1	11.37	2.81	0	0	1	1.05977	-3.80045	110	1	1.12	0.95;
	539	1	0	0	0	0	1	1.09657	-7.7072	110	1	1.12	0.95;