function mpc = case2746wop
%CASE2746WOP    Power flow data for Polish system - winter 2003-04 off-peak.
%   Please see CASEFORMAT for details on the case file format.
%
%   This case represents the Polish 400, 220 and 110 kV networks during
%   winter 2003-04 off-peak conditions. Multiple centrally dispatchable
%   generators at a bus have not been aggregated. Generators that are
%   not centrally dispatchable in the Polish energy market are given a
%   cost of zero.
%
%   This data was graciously provided by, and is distributed with the
%   permission of, Roman Korab <roman.korab@polsl.pl>.
%
%   MODIFIED 2018-10-16 (RDZ): Corrected sign of phase shifter angles
%           in this case to reflect correction of phase shifter sign
%           convention in MATPOWER code made on 2007-06-21 and included
%           in MATPOWER v3.2. Original version of this case was based
%           on the old sign convention. (Thanks to Mikhail Khokhlov and
%           Dr. Artjoms Obusevs for reporting.)

%   MATPOWER

%% MATPOWER Case Format : Version 2
mpc.version = '2';

%%-----  Power Flow Data  -----%%
%% system MVA base
mpc.baseMVA = 100;

%% bus data
%	bus_i	type	Pd	Qd	Gs	Bs	area	Vm	Va	baseKV	zone	Vmax	Vmin	lam_P	lam_Q	mu_Vmax	mu_Vmin
mpc.bus = [
	1	1	0	0	0	0	1	1.1003396	-5.8041144	220	1	1.11	0.95	91.0752	0.1612	0.0000	0.0000;
	2	1	0	0	0	0	1	1.1039808	-2.5080831	220	1	1.11	0.95	90.2372	0.0981	0.0000	0.0000;
	3	1	0	0	0	0	1	1.0727181	-22.67999	220	1	1.11	0.95	99.4746	0.0556	0.0000	0.0000;
	4	1	0	0	0	0	1	1.0979142	-8.8291158	220	1	1.11	0.95	92.5348	0.2170	0.0000	0.0000;
	5	1	0	0	0	0	1	1.0979424	-8.8358003	220	1	1.11	0.95	92.5362	0.2166	0.0000	0.0000;
	6	1	0	0	0	0	1	1.0787899	-16.503557	220	1	1.11	0.95	95.7776	0.0797	0.0000	0.0000;
	7	1	0	0	0	0	1	1.0788162	-16.497825	220	1	1.11	0.95	95.7746	0.0792	0.0000	0.0000;
	8	1	0	0	0	-50	1	1.029636	-14.94355	400	1	1.05	0.95	95.4057	-0.1452	0.0000	0.0000;
	9	1	0	0	0	0	1	1.0296346	-14.945198	400	1	1.05	0.95	95.4074	-0.1448	0.0000	0.0000;
	10	1	0	0	0	0	1	1.0764851	-16.871989	220	1	1.11	0.95	96.2651	0.1446	0.0000	0.0000;
	11	1	0	0	0	0	1	1.0764187	-16.885088	220	1	1.11	0.95	96.2675	0.1441	0.0000	0.0000;
	12	1	0	0	0	0	1	1.0764286	-16.878588	220	1	1.11	0.95	96.2643	0.1418	0.0000	0.0000;
	13	1	0	0	0	-50	1	1.0247184	-13.167523	400	1	1.05	0.95	94.7302	0.1268	0.0000	0.0000;
	14	1	0	0	0	0	1	1.0248019	-13.162182	400	1	1.05	0.95	94.7274	0.1254	0.0000	0.0000;
	15	1	0	0	0	0	1	1.0390928	-16.217261	400	1	1.05	0.95	95.2293	-1.3509	0.0000	0.0000;
	16	1	0	0	0	0	1	1.0390928	-16.217261	400	1	1.05	0.95	95.2293	-1.3509	0.0000	0.0000;
	17	2	2.302	31	0	0	1	1.1007402	-18.634562	220	1	1.11	0.95	97.2041	-0.0000	0.0000	0.0000;
	18	2	9.7	40	0	0	1	1.1008786	-18.636829	220	1	1.11	0.95	97.2054	0.0000	0.0000	0.0000;
	19	1	0	0	0	0	1	1.0998027	-8.0293797	220	1	1.11	0.95	92.1699	0.2155	0.0000	0.0000;
	20	1	0	0	0	0	1	1.0997938	-8.025711	220	1	1.11	0.95	92.1708	0.2158	0.0000	0.0000;
	21	1	0	0	0	0	1	1.0907944	-18.579546	220	1	1.11	0.95	97.1328	0.0143	0.0000	0.0000;
	22	1	0	0	0	0	1	1.0907944	-18.579546	220	1	1.11	0.95	97.1328	0.0143	0.0000	0.0000;
	23	1	0	0	0	0	1	1.0767644	-16.828683	220	1	1.11	0.95	96.1970	0.0700	0.0000	0.0000;
	24	1	0	0	0	0	1	1.1002404	-5.9666469	220	1	1.11	0.95	91.4932	0.1722	0.0000	0.0000;
	25	1	0	0	0	-50	1	1.0208745	-17.645776	400	1	1.05	0.95	97.1084	0.9915	0.0000	0.0000;
	26	2	28.565	42.054	0	0	1	1.1094364	-5.6168012	220	1	1.11	0.95	90.9717	-0.0000	0.0000	0.0000;
	27	2	85.005	122.06	0	0	1	1.11	-2.2752568	220	1	1.11	0.95	90.1299	0.0000	1246.2206	0.0000;
	28	3	44.783	80	0	0	1	1.048419	-4.412957	400	1	1.05	0.95	91.1767	-0.0000	0.0000	0.0000;
	29	2	60.097	90	0	0	1	1.0484076	-4.4038563	400	1	1.05	0.95	91.1718	-0.0017	0.0000	0.0000;
	30	1	0	0	0	0	1	1.0806119	-18.048309	220	1	1.11	0.95	97.0716	0.1704	0.0000	0.0000;
	31	1	0	0	0	0	1	1.0490196	-5.4090272	400	1	1.05	0.95	91.2070	-0.3208	0.0000	0.0000;
	32	1	0	0	0	0	1	1.0750736	-17.031979	220	1	1.11	0.95	96.3326	0.1655	0.0000	0.0000;
	33	1	0	0	0	0	1	1.1002441	-5.9657856	220	1	1.11	0.95	91.4930	0.1722	0.0000	0.0000;
	34	1	0	0	0	0	1	1.1001336	-11.700376	220	1	1.11	0.95	93.7432	0.1876	0.0000	0.0000;
	35	1	0	0	0	0	1	1.0930028	-14.672176	220	2	1.11	0.95	94.7883	-0.8657	0.0000	0.0000;
	36	1	0	0	0	0	1	1.0813334	-15.095174	220	2	1.11	0.95	95.3394	-0.8172	0.0000	0.0000;
	37	1	0	0	0	0	1	1.090534	-14.116108	220	2	1.11	0.95	94.7038	-1.0768	0.0000	0.0000;
	38	1	0	0	0	0	1	1.0905091	-14.11899	220	2	1.11	0.95	94.7053	-1.0765	0.0000	0.0000;
	39	1	0	0	0	0	1	1.0853026	-15.717887	220	2	1.11	0.95	95.6296	-0.6557	0.0000	0.0000;
	40	1	0	0	0	0	1	1.11	-13.425662	220	2	1.11	0.95	94.1415	-3.4975	20377.2614	0.0000;
	41	1	0	0	0	0	1	1.1099097	-13.42867	220	2	1.11	0.95	94.1434	-3.4837	0.0000	0.0000;
	42	1	0	0	0	0	1	1.026429	-13.487985	400	2	1.05	0.95	94.2405	-2.4059	0.0000	0.0000;
	43	2	12	0	0	0	1	1.0984004	-13.307731	220	2	1.11	0.95	94.2528	-0.6891	0.0000	0.0000;
	44	2	24	0	0	0	1	1.0983481	-13.292422	220	2	1.11	0.95	94.2488	-0.6908	0.0000	0.0000;
	45	2	20	0	0	0	1	1.0325913	-13.232481	400	2	1.05	0.95	94.5600	-0.5862	0.0000	0.0000;
	46	1	0	0	0	0	1	1.032567	-13.234248	400	2	1.05	0.95	94.5595	-0.5865	0.0000	0.0000;
	47	1	0	0	0	0	1	1.1087361	-13.856041	220	2	1.11	0.95	94.4268	-3.3016	0.0000	0.0000;
	48	1	0	0	0	0	1	1.0284578	-17.17828	400	2	1.05	0.95	95.6142	-0.6768	0.0000	0.0000;
	49	1	0	0	0	0	1	1.0284335	-17.183891	400	2	1.05	0.95	95.6169	-0.6759	0.0000	0.0000;
	50	1	0	0	0	0	1	1.0284061	-13.715843	400	2	1.05	0.95	94.6694	-0.6383	0.0000	0.0000;
	51	1	0	0	0	0	1	1.085418	-14.827225	220	2	1.11	0.95	95.0503	-0.6626	0.0000	0.0000;
	52	1	0	0	0	0	1	1.0854171	-14.824059	220	2	1.11	0.95	95.0503	-0.6619	0.0000	0.0000;
	53	1	0	0	0	0	1	1.0367923	-13.975449	400	2	1.05	0.95	94.6640	-1.0822	0.0000	0.0000;
	54	1	0	0	0	0	1	1.0368177	-13.975713	400	2	1.05	0.95	94.6638	-1.0834	0.0000	0.0000;
	55	2	12	0	0	0	1	1.0933675	-13.241702	220	2	1.11	0.95	94.2858	-1.1741	0.0000	0.0000;
	56	2	12	0	0	0	1	1.0933406	-13.24139	220	2	1.11	0.95	94.2831	-1.1766	0.0000	0.0000;
	57	2	12	0	0	0	1	1.0399269	-13.602589	400	2	1.05	0.95	94.4699	-1.2205	0.0000	0.0000;
	58	2	12	0	0	0	1	1.0399116	-13.607331	400	2	1.05	0.95	94.4716	-1.2215	0.0000	0.0000;
	59	2	170.733	62	0	0	1	1.0905288	-14.340794	220	2	1.11	0.95	94.7184	-0.7196	0.0000	0.0000;
	60	1	0	0	0	0	1	1.0905917	-14.3368	220	2	1.11	0.95	94.7166	-0.7200	0.0000	0.0000;
	61	1	0	0	0	0	1	1.1039125	-13.978585	220	2	1.11	0.95	94.4607	-2.8150	0.0000	0.0000;
	62	1	0	0	0	0	1	1.0972139	-14.122428	220	2	1.11	0.95	94.7122	-1.2575	0.0000	0.0000;
	63	1	0	0	0	0	1	1.0971852	-14.124141	220	2	1.11	0.95	94.7125	-1.2535	0.0000	0.0000;
	64	1	0	0	0	0	1	1.0393295	-14.834542	400	2	1.05	0.95	94.8460	-0.9549	0.0000	0.0000;
	65	1	0	0	0	0	1	1.0392873	-14.845309	400	2	1.05	0.95	94.8501	-0.9534	0.0000	0.0000;
	66	1	0	0	0	0	1	1.0885809	-14.851473	220	2	1.11	0.95	95.0154	-0.9744	0.0000	0.0000;
	67	1	0	0	0	0	1	1.089995	-14.701292	220	2	1.11	0.95	94.9206	-0.9983	0.0000	0.0000;
	68	1	0	0	0	0	1	1.0846849	-14.135762	220	2	1.11	0.95	94.7452	-0.5656	0.0000	0.0000;
	69	1	0	0	0	0	1	1.0984623	-9.2101367	220	3	1.11	0.95	92.5536	-0.4363	0.0000	0.0000;
	70	1	6.8	0	0	0	1	1.097636	-14.395557	220	3	1.11	0.95	94.8577	-0.6622	0.0000	0.0000;
	71	1	11.331	2.43	0	0	1	1.0975064	-14.403378	220	3	1.11	0.95	94.8625	-0.6605	0.0000	0.0000;
	72	1	0	0	0	0	1	1.0946558	-13.203738	220	3	1.11	0.95	94.4287	0.0529	0.0000	0.0000;
	73	1	0	0	0	0	1	1.0946671	-13.188287	220	3	1.11	0.95	94.4232	0.0520	0.0000	0.0000;
	74	1	0	0	0	0	1	1.1051601	-10.740817	220	3	1.11	0.95	92.8448	-0.0061	0.0000	0.0000;
	75	1	0	0	0	0	1	1.105133	-10.745835	220	3	1.11	0.95	92.8468	-0.0061	0.0000	0.0000;
	76	1	0	0	0	0	1	1.0977557	-17.582249	220	3	1.11	0.95	96.4839	-0.1590	0.0000	0.0000;
	77	1	0	0	0	0	1	1.0977202	-17.594098	220	3	1.11	0.95	96.4888	-0.1583	0.0000	0.0000;
	78	2	26.999	69.999	0	0	1	1.0964689	-12.136129	220	3	1.11	0.95	93.8755	0.0000	0.0000	0.0000;
	79	2	8.999	20.999	0	0	1	1.0978822	-12.713425	220	3	1.11	0.95	94.1106	-0.1274	0.0000	0.0000;
	80	1	10.085	1.376	0	0	1	1.0931866	-12.507737	220	3	1.11	0.95	94.2409	0.1606	0.0000	0.0000;
	81	1	0	0	0	0	1	1.093188	-12.511077	220	3	1.11	0.95	94.2426	0.1602	0.0000	0.0000;
	82	2	34.999	107.999	0	0	1	1.0444058	-6.4720845	400	3	1.05	0.95	91.2673	-0.2746	0.0000	0.0000;
	83	1	0	0	0	0	1	1.1049043	-10.293455	220	3	1.11	0.95	92.2247	0.1083	0.0000	0.0000;
	84	1	0	0	0	0	1	1.1026824	-11.36773	220	3	1.11	0.95	93.1712	0.0061	0.0000	0.0000;
	85	1	0	0	0	0	1	1.1026432	-11.377001	220	3	1.11	0.95	93.1761	0.0057	0.0000	0.0000;
	86	1	44.148	10.561	0	0	1	1.0984388	-9.2863579	220	3	1.11	0.95	92.5076	-0.3943	0.0000	0.0000;
	87	1	0	0	0	0	1	1.0984259	-9.2914791	220	3	1.11	0.95	92.5093	-0.3942	0.0000	0.0000;
	88	1	0	0	0	0	1	1.0937893	-11.307709	220	3	1.11	0.95	93.2279	0.1169	0.0000	0.0000;
	89	1	0	0	0	0	1	1.0937779	-11.31451	220	3	1.11	0.95	93.2313	0.1172	0.0000	0.0000;
	90	1	0	0	0	0	1	1.1006589	-8.8485145	220	3	1.11	0.95	92.3093	-0.4196	0.0000	0.0000;
	91	1	0	0	0	0	1	1.1006662	-8.8442565	220	3	1.11	0.95	92.3084	-0.4230	0.0000	0.0000;
	92	1	0	0	0	0	1	1.0494747	-6.6627576	400	3	1.05	0.95	91.9021	-0.2194	0.0000	0.0000;
	93	1	0	0	0	0	1	1.0494739	-6.6630247	400	3	1.05	0.95	91.9019	-0.2193	0.0000	0.0000;
	94	1	0	0	0	0	1	1.1018218	-10.698364	220	3	1.11	0.95	92.6759	0.0145	0.0000	0.0000;
	95	1	0	0	0	0	1	1.1018628	-10.698531	220	3	1.11	0.95	92.6753	0.0147	0.0000	0.0000;
	96	1	0	0	0	0	1	1.1057907	-10.479777	220	3	1.11	0.95	92.5431	0.0805	0.0000	0.0000;
	97	1	0	0	0	0	1	1.1057932	-10.478906	220	3	1.11	0.95	92.5417	0.0805	0.0000	0.0000;
	98	1	17.111	6.317	0	0	1	1.0963136	-12.427766	220	3	1.11	0.95	93.9483	-0.3273	0.0000	0.0000;
	99	1	0	0	0	0	1	1.0963094	-12.423739	220	3	1.11	0.95	93.9468	-0.3292	0.0000	0.0000;
	100	1	0	0	0	0	1	1.0976761	-14.377845	220	3	1.11	0.95	94.8491	-0.6629	0.0000	0.0000;
	101	1	0	0	0	0	1	1.0976653	-14.379626	220	3	1.11	0.95	94.8497	-0.6616	0.0000	0.0000;
	102	1	0	0	0	0	1	1.0968926	-16.800572	220	3	1.11	0.95	96.1741	-0.0690	0.0000	0.0000;
	103	1	0	0	0	0	1	1.096839	-16.788467	220	3	1.11	0.95	96.1712	-0.0678	0.0000	0.0000;
	104	2	13.999	39.999	0	0	1	1.1058911	-10.737461	220	3	1.11	0.95	92.7800	0.0000	0.0000	0.0000;
	105	2	0	0	0	0	1	1.1058905	-10.750145	220	3	1.11	0.95	92.7824	-0.0003	0.0000	0.0000;
	106	2	6.999	17.999	0	0	1	1.0998576	-10.553363	220	3	1.11	0.95	92.7163	0.0000	0.0000	0.0000;
	107	2	7.999	14.999	0	0	1	1.0997476	-10.555772	220	3	1.11	0.95	92.7189	0.0002	0.0000	0.0000;
	108	1	52.726	17.138	0	0	1	1.0956641	-11.948298	220	3	1.11	0.95	93.7112	-0.5284	0.0000	0.0000;
	109	1	56.444	10.902	0	0	1	1.095698	-11.961463	220	3	1.11	0.95	93.7153	-0.5333	0.0000	0.0000;
	110	1	0	0	0	0	1	1.093902	-13.568177	220	3	1.11	0.95	94.7342	-0.0907	0.0000	0.0000;
	111	1	0	0	0	0	1	1.0939286	-11.62069	220	3	1.11	0.95	93.5850	0.3044	0.0000	0.0000;
	112	1	0	0	0	0	1	1.0939386	-11.625092	220	3	1.11	0.95	93.5870	0.3038	0.0000	0.0000;
	113	1	0	0	0	0	1	1.0928751	-12.746764	220	3	1.11	0.95	94.3987	0.1266	0.0000	0.0000;
	114	1	0	0	0	0	1	1.0929005	-12.742224	220	3	1.11	0.95	94.3959	0.1257	0.0000	0.0000;
	115	1	0	0	0	0	1	1.040122	-9.1865909	400	3	1.05	0.95	92.5453	-0.1809	0.0000	0.0000;
	116	2	0	0	0	0	1	1.0957717	-12.485668	220	3	1.11	0.95	94.0393	-0.1175	0.0000	0.0000;
	117	2	7.999	14.999	0	0	1	1.0957311	-12.476078	220	3	1.11	0.95	94.0370	-0.1170	0.0000	0.0000;
	118	2	5.499	9.999	0	0	1	1.0999227	-13.165235	220	3	1.11	0.95	94.4918	-0.2638	0.0000	0.0000;
	119	1	0	0	0	0	1	1.0999096	-13.17059	220	3	1.11	0.95	94.4941	-0.2640	0.0000	0.0000;
	120	1	0	0	0	0	1	1.042963	-13.58135	400	3	1.05	0.95	94.4477	-0.9211	0.0000	0.0000;
	121	1	0	0	0	0	1	1.0429996	-13.574265	400	3	1.05	0.95	94.4444	-0.9215	0.0000	0.0000;
	122	1	0	0	0	0	1	1.0434218	-9.342175	400	3	1.05	0.95	92.6467	-0.2911	0.0000	0.0000;
	123	1	0	0	0	0	1	1.0434566	-9.340653	400	3	1.05	0.95	92.6469	-0.2918	0.0000	0.0000;
	124	1	0	0	0	0	1	1.0942312	-13.598007	220	3	1.11	0.95	94.7830	-0.1073	0.0000	0.0000;
	125	2	19.213	21.474	0	0	1	1.11	-9.7385765	220	3	1.11	0.95	92.2959	0.0000	312.7178	0.0000;
	126	2	30.672	33.602	0	0	1	1.1099486	-9.7467082	220	3	1.11	0.95	92.3016	0.0014	0.0000	0.0000;
	127	2	27.999	65.999	0	0	1	1.0401443	-8.1111678	400	3	1.05	0.95	92.1616	-0.1196	0.0000	0.0000;
	128	1	0	0	0	0	1	1.0401433	-8.1210678	400	3	1.05	0.95	92.1654	-0.1198	0.0000	0.0000;
	129	1	0	0	0	0	1	1.0980766	-9.3931842	220	3	1.11	0.95	92.5556	-0.3920	0.0000	0.0000;
	130	1	0	0	0	0	1	1.0980814	-9.3920832	220	3	1.11	0.95	92.5538	-0.3914	0.0000	0.0000;
	131	1	0	0	0	0	1	1.0993526	-9.2111481	220	3	1.11	0.95	92.4642	-0.3832	0.0000	0.0000;
	132	2	271.999	-62.001	0	0	1	1.0990964	-18.413405	220	3	1.11	0.95	96.8483	-0.2373	0.0000	0.0000;
	133	2	266.5	-24.8	0	0	1	1.097002	-18.398163	220	3	1.11	0.95	96.8472	-0.1873	0.0000	0.0000;
	134	2	14.931	12.88	0	0	1	1.1065123	-13.462082	220	4	1.11	0.95	94.6117	-0.0000	0.0000	0.0000;
	135	2	8.013	6.525	0	0	1	1.1064205	-13.470946	220	4	1.11	0.95	94.6144	0.0011	0.0000	0.0000;
	136	1	0	0	0	0	1	1.0815293	-16.24031	220	4	1.11	0.95	95.3127	0.0668	0.0000	0.0000;
	137	1	0	0	0	0	1	1.0845102	-15.737843	220	4	1.11	0.95	95.0213	0.0193	0.0000	0.0000;
	138	1	0	0	0	0	1	1.0450222	-13.350134	400	4	1.05	0.95	93.9007	-0.5766	0.0000	0.0000;
	139	1	0	0	0	0	1	1.0450451	-13.346304	400	4	1.05	0.95	93.8981	-0.5778	0.0000	0.0000;
	140	1	0	0	0	0	1	1.104459	-22.571041	220	4	1.11	0.95	99.9483	-2.0055	0.0000	0.0000;
	141	1	0	0	0	0	1	1.0845379	-24.970176	220	4	1.11	0.95	101.9983	-1.4777	0.0000	0.0000;
	142	1	0	0	0	0	1	1.0845379	-24.970176	220	4	1.11	0.95	101.9983	-1.4777	0.0000	0.0000;
	143	1	0	0	0	0	1	1.0868162	-23.55336	220	4	1.11	0.95	100.4360	-1.3126	0.0000	0.0000;
	144	1	0	0	0	0	1	1.0904594	-14.90911	220	4	1.11	0.95	93.9070	-0.1480	0.0000	0.0000;
	145	1	0	0	0	0	1	1.0904594	-14.90911	220	4	1.11	0.95	93.9070	-0.1480	0.0000	0.0000;
	146	2	55.255	6.955	0	0	1	1.1010599	-16.894759	220	4	1.11	0.95	96.4200	-0.0195	0.0000	0.0000;
	147	2	10.077	8.4	0	0	1	1.1010627	-16.90408	220	4	1.11	0.95	96.4222	-0.0209	0.0000	0.0000;
	148	2	11.5	6.86	0	0	1	1.0847972	-24.077917	220	4	1.11	0.95	101.4573	-1.5655	0.0000	0.0000;
	149	1	4.423	1.347	0	0	1	1.0847555	-24.092279	220	4	1.11	0.95	101.4641	-1.5657	0.0000	0.0000;
	150	2	12.633	6.828	0	0	1	1.0209404	-25.772587	400	4	1.05	0.95	101.8467	-1.7352	0.0000	0.0000;
	151	2	12.397	10.045	0	0	1	1.0209246	-25.77869	400	4	1.05	0.95	101.8493	-1.7356	0.0000	0.0000;
	152	1	0	0	0	0	1	1.0894799	-22.639017	220	4	1.11	0.95	100.3568	-1.5484	0.0000	0.0000;
	153	1	0	0	0	0	1	1.0822243	-21.657901	220	4	1.11	0.95	99.1685	-0.6388	0.0000	0.0000;
	154	1	0	0	0	0	1	1.0822555	-21.651456	220	4	1.11	0.95	99.1650	-0.6388	0.0000	0.0000;
	155	2	33.593	44.976	0	0	1	1.0890716	-14.012337	220	4	1.11	0.95	94.1898	0.0000	0.0000	0.0000;
	156	2	33.832	45.07	0	0	1	1.0889495	-14.067839	220	4	1.11	0.95	94.4125	0.0000	0.0000	0.0000;
	157	1	0	0	0	0	1	1.0890716	-14.012337	220	4	1.11	0.95	94.1898	0.0000	0.0000	0.0000;
	158	1	0	0	0	0	1	1.0340575	-13.036901	400	4	1.05	0.95	94.1427	-0.1131	0.0000	0.0000;
	159	2	8.687	17.49	0	0	1	1.0340329	-13.034686	400	4	1.05	0.95	94.1427	-0.1124	0.0000	0.0000;
	160	1	0	0	0	0	1	1.0842564	-25.032974	220	4	1.11	0.95	102.0466	-1.6448	0.0000	0.0000;
	161	1	0	0	0	0	1	1.0842564	-25.032974	220	4	1.11	0.95	102.0466	-1.6448	0.0000	0.0000;
	162	1	0	0	0	0	1	1.05	-12.564217	400	4	1.05	0.95	93.1599	-2.0147	8269.9647	0.0000;
	163	1	0	0	0	0	1	1.0483545	-11.638085	400	4	1.05	0.95	92.9831	-0.9545	0.0000	0.0000;
	164	1	0	0	0	0	1	1.0483556	-11.644285	400	4	1.05	0.95	92.9864	-0.9533	0.0000	0.0000;
	165	2	5.495	9.587	0	0	1	1.1008249	-17.138713	220	4	1.11	0.95	96.5419	-0.0000	0.0000	0.0000;
	166	2	10.099	4.886	0	0	1	1.1007016	-17.154685	220	4	1.11	0.95	96.5512	0.0012	0.0000	0.0000;
	167	1	14.36	13.623	0	0	1	1.1007966	-17.139982	220	4	1.11	0.95	96.5424	0.0004	0.0000	0.0000;
	168	1	0	0	0	0	1	1.1079282	-28.127364	220	4	1.11	0.95	103.3368	-2.2224	0.0000	0.0000;
	169	1	0	0	0	0	1	1.087324	-25.067011	220	4	1.11	0.95	102.0493	-1.5190	0.0000	0.0000;
	170	1	0	0	0	0	1	1.11	-23.559049	220	4	1.11	0.95	100.5561	-2.7733	11480.4692	0.0000;
	171	1	0	0	0	0	1	1.1098972	-23.558201	220	4	1.11	0.95	100.5570	-2.7618	0.0000	0.0000;
	172	1	0	0	0	0	1	0.96398571	-24.638265	400	4	1.05	0.95	100.9598	-2.1379	0.0000	0.0000;
	173	1	0	0	0	0	1	0.96398571	-24.638265	400	4	1.05	0.95	100.9598	-2.1379	0.0000	0.0000;
	174	1	0	0	0	0	1	1.0696839	-20.949808	220	4	1.11	0.95	99.3692	-0.3413	0.0000	0.0000;
	175	1	0	0	0	0	1	1.0696958	-20.947885	220	4	1.11	0.95	99.3693	-0.3411	0.0000	0.0000;
	176	1	0	0	0	0	1	1.1082501	-23.792603	220	4	1.11	0.95	100.6723	-2.6840	0.0000	0.0000;
	177	1	0	0	0	0	1	1.0859664	-15.678153	220	4	1.11	0.95	94.9201	-0.0123	0.0000	0.0000;
	178	1	0	0	0	0	1	1.0859993	-15.673145	220	4	1.11	0.95	94.9186	-0.0124	0.0000	0.0000;
	179	1	0	0	0	0	1	1.0917114	-14.683654	220	4	1.11	0.95	94.3367	0.0111	0.0000	0.0000;
	180	1	0	0	0	0	1	1.0917114	-14.683654	220	4	1.11	0.95	94.3367	0.0111	0.0000	0.0000;
	181	1	0	0	0	0	1	1.0678356	-21.76123	220	4	1.11	0.95	99.6432	-0.3535	0.0000	0.0000;
	182	1	0	0	0	0	1	1.063868	-24.73491	220	5	1.11	0.95	101.1180	0.8305	0.0000	0.0000;
	183	1	0	0	0	0	1	1.11	-31.694348	220	5	1.11	0.95	104.4421	-1.8081	1861.5694	0.0000;
	184	1	0	0	0	0	1	1.0275404	-31.317799	400	5	1.05	0.95	104.1476	-1.2745	0.0000	0.0000;
	185	1	0	0	0	0	1	1.0275436	-31.310859	400	5	1.05	0.95	104.1440	-1.2754	0.0000	0.0000;
	186	1	0	0	0	0	1	1.0179187	-33.636246	400	5	1.05	0.95	105.1032	0.3110	0.0000	0.0000;
	187	1	0	0	0	0	1	1.0179404	-33.643752	400	5	1.05	0.95	105.1071	0.3094	0.0000	0.0000;
	188	1	0	0	0	0	1	1.0778956	-31.850779	220	5	1.11	0.95	105.5364	-0.0614	0.0000	0.0000;
	189	1	0	0	0	0	1	1.0779468	-31.854197	220	5	1.11	0.95	105.5370	-0.0635	0.0000	0.0000;
	190	1	0	0	0	0	1	1.060876	-26.835974	220	5	1.11	0.95	102.4103	1.1790	0.0000	0.0000;
	191	1	0	0	0	0	1	1.0609263	-26.833741	220	5	1.11	0.95	102.4091	1.1774	0.0000	0.0000;
	192	1	0	0	0	0	1	1.0061829	-26.37235	400	5	1.05	0.95	101.7977	1.2095	0.0000	0.0000;
	193	1	0	0	0	0	1	1.0693967	-24.332532	220	5	1.11	0.95	100.9086	0.8349	0.0000	0.0000;
	194	1	0	0	0	0	1	1.0693881	-24.329742	220	5	1.11	0.95	100.9088	0.8356	0.0000	0.0000;
	195	1	0	0	0	0	1	1.0184099	-32.763078	400	5	1.05	0.95	104.9447	0.3712	0.0000	0.0000;
	196	1	0	0	0	0	1	1.0183911	-32.760735	400	5	1.05	0.95	104.9441	0.3718	0.0000	0.0000;
	197	1	0	0	0	0	1	1.0693764	-26.606702	220	5	1.11	0.95	102.9941	0.7578	0.0000	0.0000;
	198	1	0	0	0	0	1	1.0693398	-26.599683	220	5	1.11	0.95	102.9894	0.7586	0.0000	0.0000;
	199	1	0	0	0	0	1	1.0266211	-32.853512	400	5	1.05	0.95	104.7693	-0.7581	0.0000	0.0000;
	200	1	0	0	0	0	1	1.0266502	-32.840632	400	5	1.05	0.95	104.7640	-0.7604	0.0000	0.0000;
	201	1	0	0	0	0	1	1.0504501	-26.531904	220	5	1.11	0.95	102.9710	1.4267	0.0000	0.0000;
	202	1	0	0	0	0	1	1.0504315	-26.525917	220	5	1.11	0.95	102.9701	1.4270	0.0000	0.0000;
	203	1	0	0	0	0	1	1.0520891	-24.098864	220	5	1.11	0.95	101.7793	1.3935	0.0000	0.0000;
	204	1	0	0	0	0	1	1.0520151	-24.112731	220	5	1.11	0.95	101.7861	1.3950	0.0000	0.0000;
	205	2	619.912	0	0	0	1	1.0176137	-35.925103	400	5	1.05	0.95	105.9174	0.0002	0.0000	0.0000;
	206	2	205.255	0	0	0	1	1.0175965	-35.923079	400	5	1.05	0.95	105.9164	0.0017	0.0000	0.0000;
	207	1	0	0	0	0	1	1.1006654	-32.082795	220	5	1.11	0.95	105.0012	-1.5779	0.0000	0.0000;
	208	1	0	0	0	0	1	1.1006733	-32.085901	220	5	1.11	0.95	105.0011	-1.5767	0.0000	0.0000;
	209	1	5.821	1.5	0	0	1	1.0893953	-19.598542	110	1	1.12	0.95	97.9657	-1.5205	0.0000	0.0000;
	210	1	4.366	0.5	0	0	1	1.0780802	-26.947828	110	1	1.12	0.95	103.1849	0.2755	0.0000	0.0000;
	211	1	7.761	2	0	0	1	1.0946101	-18.29998	110	1	1.12	0.95	96.0243	0.2300	0.0000	0.0000;
	212	1	6.306	5.6	0	0	1	1.043808	-21.64187	110	1	1.12	0.95	101.0962	1.8801	0.0000	0.0000;
	213	1	2.523	0.6	0	0	1	1.0691315	-5.1118202	110	1	1.12	0.95	91.0765	0.2527	0.0000	0.0000;
	214	1	4.851	1.3	0	0	1	1.0831021	-7.6101832	110	1	1.12	0.95	91.6312	0.2877	0.0000	0.0000;
	215	2	19.194	8	0	0	1	1.1183524	-17.842005	110	1	1.12	0.95	94.4391	-2.1719	0.0000	0.0000;
	216	1	14.553	1.5	0	0	1	1.1175586	-18.044515	110	1	1.12	0.95	94.6502	-2.3622	0.0000	0.0000;
	217	1	4.851	1	0	0	1	1.1176337	-18.005824	110	1	1.12	0.95	94.6099	-2.3129	0.0000	0.0000;
	218	1	4.851	1	0	0	1	1.1172392	-18.107849	110	1	1.12	0.95	94.6648	-2.1363	0.0000	0.0000;
	219	2	8.247	1.6	0	0	1	1.0797758	-21.097123	110	1	1.12	0.95	99.1137	0.2069	0.0000	0.0000;
	220	1	5.822	1.5	0	0	1	1.0835093	-19.405697	110	1	1.12	0.95	97.3759	0.5103	0.0000	0.0000;
	221	2	0	0	0	0	1	1.0721998	-16.594249	110	1	1.12	0.95	93.9195	-1.0326	0.0000	0.0000;
	222	2	6.306	1.5	0	0	1	1.0946839	-11.808388	110	1	1.12	0.95	94.1379	-0.3592	0.0000	0.0000;
	223	2	15.523	2.6	0	0	1	1.0853883	-20.402784	110	1	1.12	0.95	97.6954	0.3471	0.0000	0.0000;
	224	1	1.649	0.4	0	0	1	1.0538034	-7.0321268	110	1	1.12	0.95	92.5272	0.3817	0.0000	0.0000;
	225	1	2.425	0.2	0	0	1	1.0754425	-23.07969	110	1	1.12	0.95	99.5630	1.1050	0.0000	0.0000;
	226	1	2.911	0.5	0	0	1	1.0966155	-23.49709	110	1	1.12	0.95	99.4114	-0.3934	0.0000	0.0000;
	227	1	10.672	0.499	0	0	1	1.1065854	-19.005119	110	1	1.12	0.95	96.3484	-2.3882	0.0000	0.0000;
	228	1	6.791	2	0	0	1	1.0818807	-20.892765	110	1	1.12	0.95	98.0529	0.4670	0.0000	0.0000;
	229	2	2.231	1.05	0	0	1	1.1068722	-11.6927	110	1	1.12	0.95	93.6474	0.1449	0.0000	0.0000;
	230	2	2.231	1.05	0	0	1	1.107264	-11.6972	110	1	1.12	0.95	93.6442	0.1324	0.0000	0.0000;
	231	1	11.642	6	0	0	1	1.0775116	-20.614289	110	1	1.12	0.95	98.2694	0.6446	0.0000	0.0000;
	232	1	4.366	1	0	0	1	1.084071	-7.5052918	110	1	1.12	0.95	91.5210	0.2702	0.0000	0.0000;
	233	1	8.732	1	0	0	1	1.0721931	-14.854686	110	1	1.12	0.95	95.3342	-0.9151	0.0000	0.0000;
	234	1	16.493	14	0	0	1	1.0685775	-5.7867467	110	1	1.12	0.95	91.0046	0.4646	0.0000	0.0000;
	235	1	3.978	0.5	0	0	1	1.077336	-23.526478	110	1	1.12	0.95	100.5388	0.2160	0.0000	0.0000;
	236	1	8.926	3.64	0	0	1	1.1110461	-11.05696	110	1	1.12	0.95	92.7618	0.0930	0.0000	0.0000;
	237	1	4.463	0.3	0	0	1	1.0766985	-23.563158	110	1	1.12	0.95	100.5926	0.2108	0.0000	0.0000;
	238	1	5.821	1	0	0	1	1.0885291	-20.919882	110	1	1.12	0.95	98.2355	-0.8153	0.0000	0.0000;
	239	2	4.305	1.175	0	0	1	1.0752469	-21.133952	110	1	1.12	0.95	98.9912	0.4628	0.0000	0.0000;
	240	1	7.471	1	0	0	1	1.061592	-27.435014	110	1	1.12	0.95	103.2622	1.0614	0.0000	0.0000;
	241	1	4.463	1.67	0	0	1	1.1110439	-11.243631	110	1	1.12	0.95	93.0383	0.0889	0.0000	0.0000;
	242	1	6.791	0.7	0	0	1	1.1177729	-8.7603582	110	1	1.12	0.95	90.5300	-2.1839	0.0000	0.0000;
	243	1	0	0	0	0	1	1.1178589	-8.7383321	110	1	1.12	0.95	90.5298	-2.1929	0.0000	0.0000;
	244	1	2.231	1.4	0	0	1	1.0915174	-18.434223	110	1	1.12	0.95	96.4735	0.0294	0.0000	0.0000;
	245	1	0	0	0	0	1	1.0783284	-3.6082787	110	1	1.12	0.95	90.2340	0.1585	0.0000	0.0000;
	246	2	1.982	5	0	0	1	1.0855015	-0.2958284	22	1	1.12	0.95	90.4966	-0.0000	0.0000	0.0000;
	247	1	6.792	1.5	0	0	1	1.093579	-24.555447	110	1	1.12	0.95	100.8349	-0.2724	0.0000	0.0000;
	248	1	1.94	0.5	0	0	1	1.0933423	-25.308525	110	1	1.12	0.95	100.0227	0.2658	0.0000	0.0000;
	249	1	1.94	0.5	0	0	1	1.1018756	-23.685465	110	1	1.12	0.95	99.5626	-0.4745	0.0000	0.0000;
	250	1	2.911	0.5	0	0	1	1.0632486	-28.336295	110	1	1.12	0.95	106.3598	0.1628	0.0000	0.0000;
	251	1	2.814	0.5	0	0	1	1.0844642	-20.775446	110	1	1.12	0.95	97.7534	0.6924	0.0000	0.0000;
	252	1	10.672	7	0	0	1	1.0727626	-16.114865	110	1	1.12	0.95	95.4129	0.6761	0.0000	0.0000;
	253	1	21.345	5	0	0	1	1.0767513	-20.843149	110	1	1.12	0.95	98.4146	0.6450	0.0000	0.0000;
	254	1	8.732	2	0	0	1	1.0684869	-28.559916	110	1	1.12	0.95	103.5618	0.7875	0.0000	0.0000;
	255	1	18.433	1	0	0	1	1.1007103	-22.993531	110	1	1.12	0.95	98.9488	-0.7426	0.0000	0.0000;
	256	1	3.396	0.5	0	0	1	1.1012721	-23.168569	110	1	1.12	0.95	99.0170	-0.6522	0.0000	0.0000;
	257	1	2.425	0.35	0	0	1	1.0709915	-4.861503	110	1	1.12	0.95	91.2042	0.3070	0.0000	0.0000;
	258	1	2.425	0.35	0	0	1	1.0709312	-4.8717295	110	1	1.12	0.95	91.2077	0.3079	0.0000	0.0000;
	259	1	6.791	2.54	0	0	1	1.100147	-12.251615	110	1	1.12	0.95	94.3128	0.3101	0.0000	0.0000;
	260	1	4.851	1	0	0	1	1.0613374	-28.721247	110	1	1.12	0.95	106.8301	0.1382	0.0000	0.0000;
	261	1	2.134	0.5	0	0	1	1.0998302	-18.516798	110	1	1.12	0.95	96.2820	0.0149	0.0000	0.0000;
	262	1	7.276	1.6	0	0	1	1.0867375	-18.241882	110	1	1.12	0.95	96.6175	0.2253	0.0000	0.0000;
	263	1	0.776	0.5	0	0	1	1.0730617	-24.726757	110	1	1.12	0.95	101.2008	0.3817	0.0000	0.0000;
	264	1	41.719	37	0	0	1	1.0760739	-4.0395362	110	1	1.12	0.95	90.3770	0.1907	0.0000	0.0000;
	265	1	43.66	40	0	0	1	1.0767596	-7.2243557	110	1	1.12	0.95	91.3202	0.4168	0.0000	0.0000;
	266	1	2.911	1	0	0	1	1.08214	-20.125961	110	1	1.12	0.95	97.8292	0.5128	0.0000	0.0000;
	267	1	8.247	0.7	0	0	1	1.0804063	-21.053651	110	1	1.12	0.95	98.4136	0.0620	0.0000	0.0000;
	268	1	5.336	1.1	0	0	1	1.0847404	-20.674913	110	1	1.12	0.95	97.6082	0.7979	0.0000	0.0000;
	269	1	7.761	1.5	0	0	1	1.1076506	-19.037162	110	1	1.12	0.95	96.2427	-2.3531	0.0000	0.0000;
	270	1	5.821	1.5	0	0	1	1.0649129	-27.945983	110	1	1.12	0.95	105.9202	0.1894	0.0000	0.0000;
	271	1	10.672	2.75	0	0	1	1.0823726	-19.058545	110	1	1.12	0.95	96.9231	0.5788	0.0000	0.0000;
	272	1	0.098	0	0	0	1	1.0808014	-20.628245	110	1	1.12	0.95	98.9419	0.2870	0.0000	0.0000;
	273	1	0.097	0.03	0	0	1	1.1014805	-17.787678	110	1	1.12	0.95	95.6030	0.0721	0.0000	0.0000;
	274	1	0.097	0.03	0	0	1	1.0939022	-18.352137	110	1	1.12	0.95	96.2892	0.2756	0.0000	0.0000;
	275	1	7.451	3.94	0	0	1	1.1088156	-10.503272	110	1	1.12	0.95	92.5317	0.2934	0.0000	0.0000;
	276	1	4.967	2.63	0	0	1	1.1132525	-10.968029	110	1	1.12	0.95	92.6084	0.0659	0.0000	0.0000;
	277	1	5.239	1.2	0	0	1	1.0978754	-11.570257	110	1	1.12	0.95	93.7387	-0.4277	0.0000	0.0000;
	278	1	1.94	0	0	0	1	1.1095268	-18.963812	110	1	1.12	0.95	95.6635	-1.6148	0.0000	0.0000;
	279	1	5.336	0	0	0	1	1.0947849	-20.321637	110	1	1.12	0.95	97.3622	-0.5540	0.0000	0.0000;
	280	1	10.672	3	0	0	1	1.0948371	-18.2804	110	1	1.12	0.95	96.3241	0.2345	0.0000	0.0000;
	281	1	7.761	1	0	0	1	1.0714759	-19.886669	110	1	1.12	0.95	97.9373	0.5702	0.0000	0.0000;
	282	1	22.314	21	0	0	1	1.068342	-6.8444492	110	1	1.12	0.95	91.3253	0.5187	0.0000	0.0000;
	283	1	15.524	13	0	0	1	1.0682129	-6.8223579	110	1	1.12	0.95	91.3228	0.5189	0.0000	0.0000;
	284	1	7.762	3.17	0	0	1	1.1074929	-10.365018	110	1	1.12	0.95	92.4687	0.3590	0.0000	0.0000;
	285	1	10.672	1.6	0	0	1	1.1037976	-11.2444	110	1	1.12	0.95	93.2850	0.3352	0.0000	0.0000;
	286	1	5.821	0.5	0	0	1	1.0917512	-23.189868	110	1	1.12	0.95	99.1341	-0.2848	0.0000	0.0000;
	287	1	3.396	0	0	0	1	1.1110163	-19.904455	110	1	1.12	0.95	96.0519	-1.6062	0.0000	0.0000;
	288	1	2.425	0.5	0	0	1	1.0745673	-20.662545	110	1	1.12	0.95	98.5944	0.5207	0.0000	0.0000;
	289	1	2.425	0.6	0	0	1	1.099565	-14.075415	110	1	1.12	0.95	95.5458	0.2128	0.0000	0.0000;
	290	1	16.008	6	0	0	1	1.0723554	-19.777479	110	1	1.12	0.95	97.8159	0.5569	0.0000	0.0000;
	291	2	9.702	1	0	0	1	1.1009634	-18.317475	110	1	1.12	0.95	96.0463	0.0000	0.0000	0.0000;
	292	1	5.239	1.96	0	0	1	1.1075243	-10.167008	110	1	1.12	0.95	92.2936	0.3814	0.0000	0.0000;
	293	1	1.94	1.3	0	0	1	1.0793622	-18.725171	110	1	1.12	0.95	97.0862	0.0513	0.0000	0.0000;
	294	2	4.657	0.8	0	0	1	1.0795377	-21.410581	110	1	1.12	0.95	98.8780	0.0223	0.0000	0.0000;
	295	1	6.209	0.9	0	0	1	1.1001007	-13.85187	110	1	1.12	0.95	95.3463	0.2188	0.0000	0.0000;
	296	1	3.881	2	0	0	1	1.1056563	-10.867097	110	1	1.12	0.95	92.8062	-0.7699	0.0000	0.0000;
	297	1	7.276	2.97	0	0	1	1.1045666	-11.749084	110	1	1.12	0.95	93.7143	0.2329	0.0000	0.0000;
	298	1	9.8	3.67	0	0	1	1.1060563	-11.761412	110	1	1.12	0.95	93.7269	0.1723	0.0000	0.0000;
	299	2	9.702	3.5	0	0	1	1.1062355	-19.171947	110	1	1.12	0.95	95.9727	-1.9513	0.0000	0.0000;
	300	1	0	0	0	0	1	1.1135182	-10.972188	110	1	1.12	0.95	92.6084	0.0524	0.0000	0.0000;
	301	1	3.881	0.5	0	0	1	1.0492538	-7.6572148	110	1	1.12	0.95	93.2805	0.4122	0.0000	0.0000;
	302	1	8.15	3.33	0	0	1	1.1075531	-10.162469	110	1	1.12	0.95	92.2890	0.3813	0.0000	0.0000;
	303	1	9.605	3.59	0	0	1	1.1109223	-11.241758	110	1	1.12	0.95	93.0323	0.0962	0.0000	0.0000;
	304	1	13.291	4.97	0	0	1	1.108933	-10.376113	110	1	1.12	0.95	92.4418	0.3139	0.0000	0.0000;
	305	1	14.844	5.55	0	0	1	1.1051559	-11.758363	110	1	1.12	0.95	93.7212	0.2042	0.0000	0.0000;
	306	2	78.068	52.19	0	0	1	1.1019165	-11.609086	110	1	1.12	0.95	93.5638	0.3806	0.0000	0.0000;
	307	2	52.074	20.97	0	0	1	1.1066548	-11.686355	110	1	1.12	0.95	93.6380	0.1551	0.0000	0.0000;
	308	2	18.922	9.47	0	0	1	1.1129305	-11.213197	110	1	1.12	0.95	93.0280	-0.0000	0.0000	0.0000;
	309	1	0	0	0	0	1	1.1047854	-11.752653	110	1	1.12	0.95	93.7168	0.2218	0.0000	0.0000;
	310	2	36.737	19.74	0	0	1	1.1106088	-10.347089	110	1	1.12	0.95	92.3616	0.2446	0.0000	0.0000;
	311	2	29.633	16.42	0	0	1	1.1134899	-11.051498	110	1	1.12	0.95	92.6966	-0.0000	0.0000	0.0000;
	312	1	8.053	0.8	0	0	1	1.1034877	-13.008117	110	1	1.12	0.95	94.6346	0.1839	0.0000	0.0000;
	313	1	1.94	0	0	0	1	1.1118562	-18.815042	110	1	1.12	0.95	95.6571	-2.3571	0.0000	0.0000;
	314	1	0.97	0.501	0	0	1	1.0769668	-20.541498	110	1	1.12	0.95	98.4975	0.5345	0.0000	0.0000;
	315	1	5.578	0.75	0	0	1	1.0748035	-20.952427	110	1	1.12	0.95	98.8890	0.5320	0.0000	0.0000;
	316	1	8.489	1.25	0	0	1	1.0748103	-20.9414	110	1	1.12	0.95	98.8863	0.5324	0.0000	0.0000;
	317	1	12.419	3	0	0	1	1.0860755	-18.860027	110	1	1.12	0.95	96.6204	0.4890	0.0000	0.0000;
	318	1	6.694	2.5	0	0	1	1.1083996	-10.326425	110	1	1.12	0.95	92.4086	0.3403	0.0000	0.0000;
	319	2	12.03	4.5	0	0	1	1.1082845	-10.53425	110	1	1.12	0.95	92.5697	0.3046	0.0000	0.0000;
	320	1	10.672	2.5	0	0	1	1.0930169	-20.629709	110	1	1.12	0.95	97.7216	-0.4276	0.0000	0.0000;
	321	1	11.642	4.75	0	0	1	1.112626	-11.077955	110	1	1.12	0.95	92.7345	0.0297	0.0000	0.0000;
	322	1	11.613	4.74	0	0	1	1.1007043	-11.686497	110	1	1.12	0.95	93.6554	0.4174	0.0000	0.0000;
	323	1	4.977	2.03	0	0	1	1.102099	-11.676436	110	1	1.12	0.95	93.6381	0.3579	0.0000	0.0000;
	324	1	9.702	2.5	0	0	1	1.0938518	-20.383829	110	1	1.12	0.95	97.4484	-0.4707	0.0000	0.0000;
	325	1	14.553	3	0	0	1	1.0737942	-21.544067	110	1	1.12	0.95	99.5146	0.4418	0.0000	0.0000;
	326	1	8.926	3.34	0	0	1	1.1021181	-11.678264	110	1	1.12	0.95	93.6399	0.3570	0.0000	0.0000;
	327	1	5.336	1	0	0	1	1.1059571	-11.303873	110	1	1.12	0.95	93.1252	-0.1838	0.0000	0.0000;
	328	1	2.911	0.6	0	0	1	1.1055599	-11.323435	110	1	1.12	0.95	93.1571	-0.2161	0.0000	0.0000;
	329	1	38.225	14.3	0	0	1	1.1057803	-10.705471	110	1	1.12	0.95	92.7662	0.3788	0.0000	0.0000;