function mpc = case1888rte
%CASE1888RTE  AC Power flow data for French system.
%   Please see CASEFORMAT for details on the case file format.
%
%   This case accurately represents the size and complexity of French
%   very high voltage transmission network.
%   Part of this data was sampled in the offline platform of iTesla.
%   These data can be used to validate mathematical methods and tools.
%   These data should NOT be used for operation
%   nor planning of the French or European grids.
%
%   When publishing results based on this data, please cite:
%
%     C. Josz, S. Fliscounakis, J. Maeght, and P. Panciatici, "AC Power Flow
%     Data in MATPOWER and QCQP Format: iTesla, RTE Snapshots, and PEGASE"
%     http://arxiv.org/abs/1603.01533
%
%   Contacts:
%     Cédric Josz, Stéphane Fliscounakis, Jean Maeght, Patrick Panciatici
%     firstname.lastname@rte-france.com
%     Réseau de Transport d'Electricité (French Transmission System Operator)
%     Département Expertise Système, Immeuble "Le Colbert"
%     9 rue de la Porte de Buc, 78000 Versailles Cedex, France
%
%   March 3rd, 2016

%   MATPOWER
%   Copyright (c) 2016 by Cédric Josz, Stéphane Fliscounakis, Jean Maeght,
%   and Patrick Panciatici
%   Licensed under the Creative Commons Attribution 4.0 International license,
%   http://creativecommons.org/licenses/by/4.0/

%% MATPOWER Case Format : Version 2
mpc.version = '2';

%%-----  Power Flow Data  -----%%
%% system MVA base
mpc.baseMVA = 100;

%% bus data
%	bus_i	type	Pd	Qd	Gs	Bs	area	Vm	Va	baseKV	zone	Vmax	Vmin
mpc.bus = [
	1	1	5.8	-5.8	0	0	1	1.03149333	-43.4924134	225	1	1.08889	0.888889;
	2	1	0	0	0	0	1	1.05203485	-1.69989632	380	1	1.10263	1.04841;
	3	1	142.5	-13.4	0	0	1	1.0448381	-18.2673882	225	1	1.08444	1.00444;
	4	1	0	0	0	0	1	1.06460516	-20.5923155	150	1	1.10667	0.9;
	5	1	32.8	-5.3	0	0	1	1.06160466	-24.974129	225	1	1.08889	0.933333;
	6	1	40.2	4	0	0	1	1.06056279	-25.2851419	225	1	1.08889	0.933333;
	7	1	0	0	0	0	1	1.05380777	-21.4555758	380	1	1.10526	1.03947;
	8	1	0	0	0	0	1	1.05708339	-22.5908652	380	1	1.10526	1.03947;
	9	1	0	0	0	0	1	1.04785952	-36.52218	225	1	1.09035	1.00444;
	10	1	148.8	14.9	0	0	1	1.04436458	-29.2139973	225	1	1.08889	0.933333;
	11	1	25.6	5	0	0	1	1.04319498	-40.8700924	225	1	1.08889	1.00444;
	12	1	39.1	8.7	0	0	1	1.02281295	-40.3898303	225	1	1.08889	1.00444;
	13	1	70.5	17.2	0	0	1	1.04317979	-40.8672304	225	1	1.08889	1.00444;
	14	1	36	-4.2	0	0	1	1.02894304	-42.5999043	225	1	1.08252	0.95;
	15	1	0	0	0	0	1	1.05264309	-32.8339736	225	1	1.08889	1.00444;
	16	1	0	0	0	0	1	1.05264349	-32.8339765	225	1	1.08889	1.00444;
	17	1	23.7	-12.4	0	0	1	1.02901493	-42.627265	225	1	1.08889	0.888889;
	18	1	5.9	-4.8	0	0	1	1.03827721	-34.821698	225	1	1.09633	0.986667;
	19	1	34	3.7	0	0	1	1.03589153	-40.9750755	225	1	1.08889	1.00444;
	20	1	6.9	0.8	0	0	1	1.03591814	-40.9727768	225	1	1.08889	1.00444;
	21	1	9.2	-29.1	0	0	1	1.04563856	-37.729861	225	1	1.08889	1.00444;
	22	1	67.7	-3.6	0	0	1	1.04526149	-38.013764	225	1	1.08889	0.986667;
	23	1	25.4	-2.7	0	0	1	1.02132076	-46.8550416	225	1	1.08889	0.888889;
	25	1	64	4.6	0	0	1	1.05341127	-16.9569828	225	1	1.08444	1.00889;
	27	1	71.6	46.7	0	0	1	1.02093389	-19.8876317	225	1	1.08889	0.933333;
	28	1	105.4	6.9	0	0	1	1.03730024	-35.8773947	225	1	1.08889	1.00444;
	29	1	0	0	0	0	1	1.05200172	-1.68628576	380	1	1.10526	1.04842;
	30	1	0	0	0	0	1	1.05203048	-1.66991411	380	1	1.10526	1.04842;
	31	1	21.7	0.9	0	0	1	1.04882932	-5.02836666	225	1	1.08444	1.00889;
	33	1	68.9	2.6	0	0	1	1.03238586	-5.81622313	225	1	1.08444	1.00889;
	34	1	50.6	12.7	0	0	1	1.04308498	-40.784603	225	1	1.08889	1.00444;
	35	1	17	2.1	0	0	1	1.02288941	-21.6110255	150	1	1.08	0.966667;
	36	1	38.2	6.3	0	0	1	1.06155485	-30.7719291	225	1	1.09212	1;
	37	1	0	0	0	0	1	1.06914917	-28.3384744	380	1	1.10526	1.04785;
	38	1	89	9.6	0	0	1	1.04384914	-38.1605038	225	1	1.08889	0.986667;
	2050	1	0	0	0	-64	1	1.02504482	-43.1806456	20	1	1.5	0.8;
	39	1	70.9	-2.3	0	0	1	1.0289438	-42.3593003	225	1	1.08889	0.968889;
	40	1	136.2	-10.7	0	0	1	1.03444741	-38.8153203	380	1	1.10526	1;
	41	1	64.6	17.3	0	0	1	1.04164115	-27.3301536	225	1	1.08889	0.933333;
	42	1	13.4	3.3	0	0	1	1.02663818	-46.6229704	225	1	1.08889	0.888889;
	43	1	33.3	4.7	0	0	1	1.0264638	-46.6671033	225	1	1.08889	0.888889;
	44	1	211.6	-1.3	0	0	1	1.05486257	-26.1320802	225	1	1.08496	1.00444;
	45	1	92.1	-9.1	0	0	1	1.04812576	-38.9307223	225	1	1.08889	1.00444;
	46	2	0	0	0	0	1	1.038	-7.667229	150	1	1.10843	0.9;
	47	1	0	0	0	0	1	1.0263661	-41.311783	225	1	1.08889	1.00444;
	48	1	0	0	0	0	1	1.02636589	-41.3117818	225	1	1.08889	1.00444;
	49	1	63.7	84.5	0	-80	1	1.02636466	-41.3117749	225	1	1.08889	1.00444;
	50	1	10.4	6.6	0	0	1	1.03638741	-36.2197213	225	1	1.08889	1.00444;
	51	1	0	0	0	0	1	1.05188712	-17.4043224	225	1	1.08889	1;
	52	1	68.7	16.5	0	0	1	1.01896671	-46.9184464	225	1	1.08889	0.888889;
	53	1	101.2	15.9	0	0	1	1.01034096	-45.5670543	225	1	1.08889	0.968889;
	54	1	0	0	0	0	1	1.01362701	-43.3936365	380	1	1.10526	1;
	55	1	28.9	10.6	0	0	1	1.02696752	-5.12919002	225	1	1.08444	1.00889;
	56	1	28.2	2.1	0	0	1	1.0271573	-5.13060801	225	1	1.08444	1.00889;
	1827	1	109.6	-12.9	0	0	1	1.04260248	-34.6579535	225	1	1.08889	1.00444;
	57	1	27.3	-10.9	0	0	1	1.05354664	-20.3612759	225	1	1.08945	0.933333;
	58	2	0	0	0	0	1	1.03648193	-7.87858801	150	1	1.10862	0.9;
	59	1	36.8	20.3	0	0	1	1.02314002	-2.05815662	225	1	1.08444	1.00889;
	60	1	36.5	30.8	0	0	1	1.02296855	-2.05607045	225	1	1.08444	1.00889;
	61	1	0	0	0	0	1	1.02486847	-2.91097833	225	1	1.08889	0.977778;
	62	1	8.4	-0.3	0	0	1	1.02838774	-44.8442595	225	1	1.08889	0.888889;
	63	1	13.2	-6.3	0	0	1	1.06744633	-26.4263846	225	1	1.08889	0.933333;
	64	1	13.2	3.3	0	0	1	1.02235895	-40.5268336	225	1	1.08889	1.00444;
	65	1	22.7	2.5	0	0	1	1.04797022	-36.5723751	225	1	1.08889	1.00444;
	66	1	11.4	-9.7	0	0	1	1.05467372	-17.6792601	225	1	1.08889	1;
	67	1	10.2	-1.3	0	0	1	1.03887262	-32.7145163	225	1	1.08889	0.986667;
	68	1	0	0	0	0	1	1.02951107	-46.2333151	225	1	1.08889	0.888889;
	69	1	0	0	0	0	1	1.02342882	-46.4249539	225	1	1.08889	0.888889;
	70	1	0	0	0	0	1	1.0318011	-44.4602666	380	1	1.10526	1.01316;
	71	1	39.2	2.8	0	0	1	1.03661923	-41.0915733	225	1	1.08889	1.00444;
	72	1	19.3	3.3	0	-80	1	1.03559998	-40.0611412	225	1	1.08889	1.00444;
	73	1	0	0	0	0	1	1.04335905	-5.37629191	225	1	1.08889	0.977778;
	74	1	0	0	0	0	1	1.0433684	-5.3756094	225	1	1.08889	0.977778;
	75	1	131.9	3.2	0	0	1	1.04166114	-5.85761588	225	1	1.08444	1.00889;
	76	1	0	0	0	0	1	1.05127602	-21.5672592	225	1	1.08444	1.00444;
	77	1	0	0	0	0	1	1.04792325	-16.6550615	380	1	1.10263	1.04211;
	78	1	94.6	-1.9	0	0	1	1.05118552	-21.616673	225	1	1.08444	1.00444;
	79	1	-1.7	-4.6	0	0	1	1.02331098	-40.2941188	225	1	1.08936	1.00444;
	80	1	3.6	-7.2	0	0	1	1.02331121	-40.2982078	225	1	1.08936	1.00444;
	81	1	35.4	10.9	0	0	1	1.03217693	-41.4880591	225	1	1.08889	0.888889;
	82	1	15.1	0.7	0	0	1	1.02481856	-45.0281473	225	1	1.08124	0.95;
	83	1	57.4	18	0	0	1	1.01752839	-46.2166908	225	1	1.08889	0.888889;
	84	1	89.9	-5.8	0	0	1	1.05114958	-18.5175825	225	1	1.08889	1;
	85	1	0	0	0	0	1	1.02932206	-16.3727754	225	1	1.08889	1;
	86	1	239.8	17.5	0	0	1	1.06749173	-16.360036	380	1	1.10526	1.0507;
	87	1	35.5	16	0	0	1	1.04562791	-13.9985911	225	1	1.08889	1;
	88	1	76.1	23	0	0	1	1.05684667	-17.6200243	225	1	1.08889	1;
	89	2	0	0	0	0	1	1.02	-12.0782361	150	1	1.1	0.9;
	90	1	21.3	12	0	0	1	1.01562498	-34.6787681	225	1	1.08889	0.986667;
	91	1	11.2	-5.2	0	0	1	1.0442032	-9.20439526	225	1	1.08444	1.00889;
	92	1	0	0	0	0	1	1.04784091	-30.3617823	380	1	1.10526	1.04211;
	93	1	0	0	0	0	1	1.04819669	-30.7872457	380	1	1.10526	1.04211;
	96	1	11.7	1.3	0	0	1	1.05246647	-18.3716113	225	1	1.08889	1;
	97	1	6.1	1.4	0	0	1	1.05271498	-34.1174229	225	1	1.08889	1.00444;
	98	1	31.6	2.6	0	0	1	1.02595701	-10.633136	150	1	1.1	0.9;
	99	1	68.9	-11.7	0	0	1	1.05109262	-20.0623153	225	1	1.08889	1;
	100	2	0.2	-0	0	0	1	1.036	-41.0134772	225	1	1.08294	0.95;
	101	1	0	0	0	0	1	1.06130462	-25.0525845	225	1	1.08889	0.933333;
	102	1	0	0	0	0	1	1.05730728	-22.5507174	380	1	1.10526	1.03947;
	103	1	0	0	0	0	1	1.05390093	-21.4221244	380	1	1.10526	1.03947;
	104	1	0	0	0	0	1	1.04342734	-40.8553116	225	1	1.08889	1.00444;
	1828	1	30.1	3.8	0	0	1	1.03331865	-42.0075156	225	1	1.08889	1.00444;
	105	1	0	0	0	0	1	1.0153912	-37.0396936	225	1	1.08889	0.986667;
	106	1	12.1	4.5	0	0	1	1.04327481	-40.8636252	225	1	1.08889	1.00444;
	107	1	106.1	-0.3	0	0	1	1.03317069	-24.414835	225	1	1.08889	0.933333;
	108	1	0	0	0	0	1	1.0448452	-22.5790651	380	1	1.10526	1.03947;
	109	1	43.3	8.4	0	0	1	1.05363596	-16.874679	225	1	1.08889	1;
	110	1	33.2	-7.5	0	0	1	1.04972999	-38.4350145	225	1	1.08986	1.00444;
	111	1	99.5	-12.4	0	0	1	1.07047513	-24.3641392	225	1	1.09612	1;
	112	1	116.4	-6.7	0	0	1	1.036317	-35.8006563	225	1	1.08889	0.986667;
	113	1	65.7	14.7	0	0	1	1.04783962	-36.5197778	225	1	1.09036	1.00444;
	114	1	107.2	21.2	0	0	1	1.01859218	-46.9856319	225	1	1.08889	0.924444;
	115	1	56.9	-2.7	0	0	1	1.04478539	-31.9620766	225	1	1.09614	0.986667;
	117	1	0	0	0	0	1	1.04949781	-30.8376086	380	1	1.10526	1.03947;
	119	1	123.6	-19.8	0	0	1	1.02694981	-29.5018375	225	1	1.08444	1.00444;
	2051	1	0	0	0	-64	1	1.00159779	-16.1870396	20	1	1.4	0.8;
	120	1	33.3	-21.3	0	0	1	1.05166038	-15.901803	225	1	1.08444	1.00889;
	121	1	0	0	0	0	1	1.04809244	-13.5762141	380	1	1.10263	1.02895;
	122	1	1.7	-4.4	0	0	1	1.03371202	-24.4313009	225	1	1.08889	0.933333;
	123	1	140.3	17.3	0	0	1	1.02448071	-20.6158774	225	1	1.08889	0.933333;
	124	1	33.7	-1.8	0	0	1	1.07264692	-28.2815068	63	1	1.07937	0.920635;
	125	2	0	0	0	0	1	1.034	-11.0182488	225	1	1.07476	0.95;
	126	1	-1.9	-5.4	0	0	1	1.05886575	-9.67090844	225	1	1.09768	1;
	127	1	0	0	0	0	1	1.0534005	-9.63558802	380	1	1.10526	1.05263;
	128	1	0	0	0	0	1	1.05345569	-9.63199227	380	1	1.10526	1.05263;
	129	1	0	0	0	0	1	1.05346235	-9.62850865	380	1	1.10526	1.05263;
	130	1	0	0	0	0	1	1.05348025	-9.64413157	380	1	1.10526	1.05263;
	131	1	0	0	0	0	1	1.04463475	-31.8804036	225	1	1.09645	0.986667;
	132	1	0	0	0	0	1	1.04466247	-31.8527006	225	1	1.09645	0.986667;
	133	1	0	0	0	0	1	1.04943382	-30.7682197	380	1	1.10526	1.03947;
	134	1	77.3	-10.6	0	0	1	1.02932303	-43.7529806	225	1	1.08889	0.968889;
	135	1	28.1	3.8	0	0	1	1.05322278	-16.9207932	225	1	1.08444	1.00889;
	136	1	-5.2	-9.4	0	0	1	1.04793054	-34.5469331	380	1	1.10526	1.03947;
	137	1	106.4	8	0	0	1	1.04090791	-18.3030267	225	1	1.08889	0.933333;
	138	1	0	0	0	0	1	1.0403026	-14.6191905	380	1	1.10526	1.03947;
	140	1	113.7	-8.3	0	0	1	1.04785941	-5.81393081	225	1	1.08444	1.00889;
	141	1	44.6	0.5	0	0	1	1.04713663	-5.59951129	225	1	1.08444	1.00889;
	142	1	165.2	-11.8	0	0	1	1.03825771	-17.2895964	225	1	1.08444	1.00444;
	143	1	29.2	2.1	0	0	1	1.04357747	-18.7041615	225	1	1.08889	0.933333;
	144	1	32.8	4.4	0	0	1	1.04355185	-18.7086771	225	1	1.08889	0.933333;
	145	1	19	-18.1	0	0	1	1.04972043	-38.4186184	225	1	1.08952	1.00444;
	146	1	0	0	0	0	1	1.04889424	-19.7144055	225	1	1.09478	1;
	147	1	0	0	0	0	1	1.04889232	-19.7143836	225	1	1.09478	1;
	148	1	37.1	5.6	0	0	1	1.05119071	-18.2332466	225	1	1.08889	1;
	149	1	20	-3.9	0	0	1	1.05270739	-34.0423111	225	1	1.08889	1.00444;
	150	1	38.1	1.6	0	0	1	1.03628049	-9.30143923	225	1	1.08444	1.00889;
	151	1	24.8	-1.8	0	0	1	1.05024615	-19.0576322	225	1	1.08889	1;
	152	1	0	0	0	0	1	1.04381179	-11.0161734	225	1	1.08444	1.00889;
	153	1	0	0	0	0	1	1.04380088	-11.0190648	225	1	1.08444	1.00889;
	154	1	0	0	0	0	1	1.04306522	-6.22228475	225	1	1.08444	1.00889;
	155	1	0	0	0	0	1	1.04527756	-4.86384421	380	1	1.10263	1.02895;
	156	1	155.3	26.5	0	0	1	1.01779227	-46.1312561	225	1	1.08889	0.888889;
	157	1	0	0	0	0	1	1.05885154	-9.67076425	225	1	1.09766	1;
	158	1	0	0	0	0	1	1.05343984	-9.71002957	380	1	1.10526	1.05263;
	159	1	21.5	4.4	0	0	1	1.03810341	-33.7186436	225	1	1.08889	0.986667;
	160	1	26.2	2.1	0	0	1	1.05228533	-17.9863346	225	1	1.08889	1;
	161	1	0	0	0	0	1	1.05124322	-33.8015412	225	1	1.08444	1.00444;
	162	1	0	0	0	0	1	1.05124322	-33.8015412	225	1	1.08444	1.00444;
	163	1	0	0	0	0	1	1.05125059	-33.8017381	225	1	1.08444	1.00444;
	164	1	55.3	-11.4	0	0	1	1.05124218	-33.8015135	225	1	1.08444	1.00444;
	165	1	0	0	0	0	1	1.02155415	-19.8388855	225	1	1.08889	0.933333;
	166	1	30	12.3	0	0	1	1.02862428	-28.96034	225	1	1.08889	0.986667;
	2019	1	0	0	0	-64	1	0.961263558	-20.2495099	20	1	1.4	0.9;
	167	1	0	0	0	0	1	1.04509756	-19.645302	225	1	1.08941	1;
	168	1	0	0	0	0	1	1.04962397	-15.8950978	380	1	1.10526	1.05263;
	169	2	0	0	0	0	1	1.065	-24.8986609	225	1	1.1	0.9;
	170	1	17.8	2.6	0	0	1	1.02141398	-22.2635234	150	1	1.08	0.966667;
	171	1	25.3	-3.2	0	0	1	1.03619839	-40.8869822	225	1	1.08889	1.00444;
	172	1	-3.7	-2	0	0	1	1.03651623	-40.8372725	225	1	1.08889	1.00444;
	173	1	37.3	0.7	0	0	1	1.01494319	-46.3423742	225	1	1.08889	0.888889;
	181	1	107.9	3.9	0	0	1	1.05024862	-19.0356156	225	1	1.08889	1;
	182	1	29.5	6.8	0	0	1	1.03299656	-36.3585668	225	1	1.08889	0.986667;
	183	1	0	0	0	0	1	1.04359513	-13.9192469	380	1	1.10526	1.03947;
	184	1	0	0	0	0	1	1.04013214	-13.7300714	380	1	1.10526	1.03947;
	185	1	0	0	0	0	1	1.04015033	-13.7337203	380	1	1.10526	1.03947;
	186	1	0	0	0	0	1	1.04358655	-13.930155	380	1	1.10526	1.03947;
	187	1	28.1	-10	0	0	1	1.03151341	-45.3907842	225	1	1.08889	0.924444;
	188	1	-2	-1.1	0	0	1	1.04498229	-37.598826	225	1	1.08889	0.986667;
	189	1	65.8	19.1	0	0	1	1.03675304	-31.5354079	225	1	1.08444	1.00444;
	190	1	-2.3	1.2	0	0	1	1.04290358	-25.4957831	380	1	1.10263	1.04211;
	191	1	-2.3	1.4	0	0	1	1.04296248	-25.5006182	380	1	1.10263	1.04211;
	192	1	0	0	0	0	1	1.03637178	-41.2331636	225	1	1.08889	1.00444;
	193	1	0	0	0	0	1	1.04649206	-6.21730893	225	1	1.08889	0.977778;
	194	1	0	0	0	0	1	1.04649206	-6.21730893	225	1	1.08889	0.977778;
	195	1	83.6	-8.6	0	0	1	1.02847573	-44.3382842	225	1	1.08889	0.968889;
	196	1	0	0	0	0	1	1.03410731	-7.69153925	225	1	1.08889	0.933333;
	197	1	0	0	0	0	1	1.0330817	-8.15990324	225	1	1.08889	0.933333;
	198	1	57.5	10.2	0	0	1	1.04150541	-26.0654439	225	1	1.08444	1.00444;
	199	1	177.4	-31.4	0	0	1	1.05205842	-21.9682498	225	1	1.08444	1.00444;
	200	1	0	0	0	0	1	1.03755574	-6.61250563	225	1	1.08889	0.977778;
	201	1	0	0	0	0	1	1.04241006	-24.9412088	225	1	1.08444	1.00444;
	202	1	124.2	-3.2	0	0	1	1.03201187	-44.2344049	225	1	1.08889	0.951111;
	203	1	35.3	1.9	0	0	1	1.03608558	-40.0215909	225	1	1.08889	1.00444;
	204	1	51.6	-4	0	0	1	1.04471086	-37.5003512	225	1	1.08889	0.986667;
	2086	1	0	0	0	-64	1	0.996621657	-16.7356538	20	1	1.4	0.8;
	205	1	16.9	-1.8	0	0	1	1.04509955	-16.3140845	225	1	1.08444	1.00889;
	206	1	0	0	0	0	1	1.04768569	-14.4079203	380	1	1.10263	1.02895;
	207	1	38.6	-0.7	0	0	1	1.03612184	-40.1303784	225	1	1.08889	1.00444;
	1829	2	0	0	0	0	1	1.022	-44.3479996	225	1	1.07859	0.95;
	208	1	0	0	0	0	1	1.02199257	-44.347975	225	1	1.08889	0.888889;
	209	1	171.1	24.7	0	0	1	1.040209	-25.1062979	225	1	1.08444	1.00444;
	210	1	46.3	14.3	0	0	1	1.03764499	-34.4201536	225	1	1.09504	0.986667;
	211	1	58.6	9.8	0	0	1	1.03244361	-6.36536844	225	1	1.08444	1.00889;
	212	1	14.6	-0.7	0	0	1	1.03235576	-5.82468192	225	1	1.08444	1.00889;
	213	1	75.4	25.3	0	0	1	1.02998343	-9.32815402	225	1	1.08889	0.933333;
	215	1	0	0	0	0	1	1.0455137	-6.6625824	380	1	1.10526	1.03947;
	216	1	74.9	-2.9	0	0	1	1.04870156	-26.3936087	380	1	1.10526	1.03947;
	217	1	0	0	0	0	1	1.0321618	-8.54492937	225	1	1.08889	0.933333;
	218	1	0	0	0	0	1	1.03122769	-8.86545038	225	1	1.08889	0.933333;
	219	1	55.6	14.5	0	0	1	1.02304577	-1.66151517	225	1	1.08444	1.00889;
	220	1	-0.1	0.8	0	0	1	1.02345648	-1.60458457	225	1	1.08444	1.00889;
	221	1	11	-0.4	0	0	1	1.0328122	-5.34348219	225	1	1.08444	1.00889;
	222	1	39.3	5.6	0	0	1	1.03905929	-29.8220598	225	1	1.08889	1.00444;
	223	1	21.6	1.4	0	0	1	1.03243842	-6.32262309	225	1	1.08444	1.00889;
	224	1	16.7	2.3	0	0	1	1.0326978	-6.27180555	225	1	1.08444	1.00889;
	225	1	2	-1.4	0	0	1	1.03365361	-45.6380881	150	1	1.10667	0.946667;
	1830	1	0	0	0	0	1	1.06227711	-32.2990554	225	1	1.08444	1.00444;
	226	1	0	0	0	0	1	1.06019112	-29.1311656	380	1	1.10263	1.04211;
	227	1	119.3	-16.4	0	0	1	1.06985336	-23.9909785	225	1	1.09795	1;
	228	1	0	0	0	0	1	1.05888933	-21.1295389	380	1	1.10526	1.05019;
	229	1	72.1	6	0	0	1	1.03128404	-44.4234727	225	1	1.08889	0.911111;
	230	1	0	0	0	0	1	1.03598896	-41.4983577	380	1	1.10526	1;
	231	1	16.1	1.9	0	0	1	1.04342149	-40.8569739	225	1	1.08889	1.00444;
	232	1	14.9	0.9	0	0	1	1.03334873	-42.0044442	225	1	1.08889	1.00444;
	233	1	6.1	1.7	0	0	1	1.03969026	-33.3605813	225	1	1.08889	0.986667;
	234	1	1.1	1.7	0	0	1	1.03973495	-33.3441463	225	1	1.08889	0.986667;
	235	1	2	-3.9	0	0	1	1.04502913	-36.1330445	225	1	1.08889	1.00444;
	236	1	2.6	2.4	0	0	1	1.04482471	-36.1316076	225	1	1.08889	1.00444;
	237	1	129	-3.4	0	0	1	1.03627947	-40.8611556	225	1	1.08889	1.00444;
	238	1	0	0	0	0	1	1.03854671	-40.7344138	225	1	1.08889	1.00444;
	239	1	25.8	4.4	0	0	1	1.04517879	-36.8237273	225	1	1.08889	1.00444;
	240	1	31.9	3.6	0	0	1	1.04487739	-36.849769	225	1	1.08889	1.00444;
	241	2	4.3	-1	0	0	1	1.011	-8.63606974	20	1	1.1	0.9;
	242	1	0	0	0	0	1	1.06211368	-9.34171973	150	1	1.08	0.966667;
	243	1	-3.4	-9.5	0	0	1	1.04141458	-26.5881218	380	1	1.11402	1.03947;
	244	1	30.9	7.4	0	0	1	1.04587	-29.9837591	380	1	1.11482	1.03947;
	245	1	11.7	0.6	0	0	1	1.04399006	-26.2253222	380	1	1.11264	1.03947;
	246	1	-18.3	-23.8	0	0	1	1.04518775	-26.2040558	380	1	1.11483	1.03947;
	247	1	45	5.3	0	0	1	1.03576523	-41.01896	225	1	1.08889	1.00444;
	2029	1	0	0	0	-64	1	0.962090008	-18.575064	20	1	1.4	0.9;
	2030	1	0	0	0	-64	1	0.961543601	-18.5469847	20	1	1.4	0.9;
	248	1	0	0	0	0	1	1.04908958	-18.3537025	225	1	1.08889	1;
	249	1	0	0	0	0	1	1.04958566	-18.3533941	225	1	1.08889	1;
	250	1	0	0	0	0	1	1.06880941	-16.8799529	380	1	1.10526	1.05019;
	251	1	0.7	-3.7	0	0	1	1.03018018	-9.33152881	225	1	1.08889	0.933333;
	252	1	92.9	-6	0	0	1	1.04534636	-36.9717361	380	1	1.10526	1.03537;
	2025	1	0	0	0	-58	1	0.979749565	-40.7185465	20	1	1.4	0.9;
	2031	1	0	0	0	-128	1	0.947797056	-39.9866808	20	1	1.4	0.9;
	2032	1	0	0	0	-58	1	0.971365072	-40.2282816	20	1	1.4	0.9;
	2046	1	0	0	0	-58	1	0.974446559	-40.325371	20	1	1.4	0.9;
	253	1	3.2	-0.8	0	0	1	1.03549947	-39.4321485	225	1	1.08889	1.00444;
	254	1	3.9	3	0	0	1	1.03817794	-39.5383002	225	1	1.08889	1.00444;
	255	1	0	0	0	0	1	1.04391731	-38.5088841	225	1	1.08889	1.00444;
	257	1	0	0	0	0	1	1.04144071	-36.4149746	380	1	1.10526	1.04211;
	258	1	0	0	0	0	1	1.04121501	-36.5497768	380	1	1.10526	1.04211;
	259	1	106.5	20.7	0	0	1	1.03334453	-41.2613005	225	1	1.08889	0.928889;
	260	1	157.5	-28.3	0	0	1	1.04872496	-26.403969	380	1	1.10526	1.03947;
	261	1	91.4	-3.2	0	0	1	1.03353507	-24.2749314	225	1	1.08444	1.00444;
	262	1	5.5	-1.3	0	0	1	1.03105247	-9.44469616	225	1	1.08889	0.933333;
	263	1	208	14.9	0	0	1	1.0418326	-13.60069	380	1	1.10526	1.03947;
	267	1	250.6	22.2	0	0	1	1.03992295	-25.5854378	225	1	1.08444	1.00444;
	268	1	0	0	0	0	1	1.04163969	-22.2295096	380	1	1.10263	1.04211;
	269	1	0	0	0	0	1	1.0416508	-22.2260114	380	1	1.10263	1.04211;
	270	2	46.4	27.4	0	0	1	1.029	-36.8384186	20	1	1.06846	0.95;
	271	1	0	0	0	0	1	1.05003045	-36.9444769	225	1	1.08889	0.986667;
	272	1	159.3	40.7	0	0	1	1.02448357	-28.3951309	225	1	1.08889	0.986667;
	273	1	203.1	3.9	0	0	1	1.0518845	-20.3121661	380	1	1.10263	1.04211;
	274	1	50	8.3	0	0	1	1.04378103	-35.4834477	225	1	1.09611	0.986667;
	275	1	17.6	-2.4	0	0	1	1.05240488	-35.0903477	225	1	1.08889	1.00444;
	276	1	22.7	-2.9	0	0	1	1.02644109	-41.4026087	225	1	1.08889	1.00444;
	278	1	0	0	0	0	1	1.059863	-16.5753836	20	1	1.4	0.9;
	279	1	36.2	-22.3	0	0	1	1.04956335	-16.0894758	225	1	1.08889	0.933333;
	280	1	169.5	24.1	0	0	1	1.0415378	-13.8280978	380	1	1.10526	1.03947;
	281	1	0	0	0	0	1	1.04319165	-20.3477053	225	1	1.08959	1;
	282	1	0	0	0	0	1	1.04531825	-19.6480062	225	1	1.08959	1;
	283	1	0	0	0	0	1	1.01711853	-12.4807509	150	1	1.08	0.966667;
	284	1	25.8	-6.7	0	0	1	1.04694781	-36.3981629	225	1	1.08889	1.00444;
	285	1	65.6	-1	0	0	1	1.0361855	-36.6002762	225	1	1.08889	1.00444;
	286	1	52.2	0.8	0	0	1	1.05334501	-27.4970562	225	1	1.08889	0.933333;
	287	1	19.7	-0.8	0	0	1	1.03326134	-28.7153834	225	1	1.08444	1.00444;
	288	1	17.6	2	0	0	1	1.03326009	-28.7151176	225	1	1.08444	1.00444;
	289	1	58.8	-0.8	0	0	1	1.03721054	-35.9529232	225	1	1.08889	1.00444;
	2062	1	0	0	0	-64	1	0.975621056	-35.478218	20	1	1.4	0.9;
	290	1	108.4	-13.2	0	0	1	1.03489545	-35.2050074	225	1	1.08889	1.00444;
	291	1	0	0	0	0	1	1.04203567	-33.7846573	380	1	1.10526	1.04211;
	292	1	0	0	0	0	1	1.04220692	-33.8119094	380	1	1.10526	1.04211;
	293	1	0	0	0	0	1	1.0465199	-32.7530966	380	1	1.10526	1.04211;
	294	1	0	0	0	0	1	1.0421219	-33.798288	380	1	1.10526	1.04211;
	295	1	160.9	1.6	0	0	1	1.03329278	-24.6286344	225	1	1.08444	1.00444;
	296	1	0	0	0	0	1	1.03432942	-41.1768755	380	1	1.10526	1;
	297	1	34.4	6.6	0	0	1	1.04778293	-36.4793657	225	1	1.08889	1.00444;
	298	1	0	0	0	0	1	1.02603449	-41.465496	225	1	1.08889	1.00444;
	299	1	0	0	0	0	1	1.05367914	-19.2454162	380	1	1.10526	1.03947;
	300	1	0	0	0	0	1	1.04781242	-16.6079488	380	1	1.10263	1.04211;
	301	1	0	0	0	0	1	1.04784951	-16.6070391	380	1	1.10263	1.04211;
	302	1	0	0	0	0	1	1.04785701	-16.6070126	380	1	1.10263	1.04211;
	303	1	184.2	-18.9	0	0	1	1.04317401	-24.9081175	225	1	1.08444	1.00444;
	304	1	-15.6	-17.2	0	0	1	1.03655416	-36.6604064	380	1	1.11618	1;
	305	1	-23.2	0.6	0	0	1	1.03863778	-37.1489609	380	1	1.11703	1;
	306	1	42.2	-0.7	0	0	1	1.02763374	-42.8375011	225	1	1.08889	0.888889;
	2047	1	0	0	0	-64	1	0.970198803	-36.2179767	20	1	1.4	0.9;
	307	1	0	0	0	0	1	1.03766192	-35.4829185	225	1	1.08889	1.00444;
	308	1	0	0	0	0	1	1.04149179	-32.5924807	380	1	1.10526	1.04211;
	309	1	96.9	-28.2	0	0	1	1.05917325	-18.3898455	225	1	1.09445	1;
	310	1	-1.7	-3.4	0	0	1	1.04203267	-9.39432884	380	1	1.10263	1.04211;
	311	1	-10.7	-3.4	0	0	1	1.04203556	-9.42009383	380	1	1.10263	1.04211;
	312	1	-7.2	-9.3	0	0	1	1.03652957	-28.2486869	225	1	1.08895	0.933333;
	313	1	87.6	-1.8	0	0	1	1.05266157	-35.194054	225	1	1.08889	1.00444;
	314	1	32.2	7.9	0	0	1	1.01866308	-46.8248646	225	1	1.08889	0.888889;
	315	1	28.6	2.6	0	0	1	1.01882246	-46.8214928	225	1	1.08889	0.888889;
	316	1	0	0	0	0	1	1.07479932	-23.3761869	380	1	1.10526	1.03947;
	317	1	141.6	32.1	0	0	1	1.04538143	-16.1108595	225	1	1.08889	1;
	318	1	30.1	-3	0	0	1	1.0265199	-41.3863846	225	1	1.08889	1.00444;
	319	1	8.2	4.4	0	0	1	1.02238932	-23.8739632	150	1	1.10667	0.9;
	320	1	91.6	8.9	0	0	1	1.04272735	-32.0653693	225	1	1.08576	1.00444;
	321	1	2.9	-9.7	0	0	1	1.03602468	-29.2882767	225	1	1.08889	0.986667;
	323	1	94.6	-5.5	0	0	1	1.03377266	-43.0116429	225	1	1.08889	1.00444;
	324	1	17.7	6.3	0	0	1	1.0160028	-26.6879276	225	1	1.08889	0.933333;
	325	1	91.8	-15.3	0	0	1	1.05727485	-34.1407275	225	1	1.08444	1.00444;
	326	1	29	-1.9	0	0	1	1.03273625	-6.04807795	225	1	1.08444	1.00889;
	327	1	22.1	-5.8	0	0	1	1.06509742	-22.6857321	20	1	1.4	0.9;
	328	1	26.3	1.4	0	0	1	1.04247167	-16.5846321	225	1	1.08889	0.933333;
	329	1	106.1	10.1	0	0	1	1.05914763	-25.6398355	225	1	1.08889	0.933333;
	330	1	42.6	6.9	0	0	1	1.04491106	-36.8307039	225	1	1.08889	1.00444;
	331	1	19.5	5	0	0	1	1.03724704	-35.9666428	225	1	1.08889	1.00444;
	332	1	17.7	-2.8	0	0	1	1.03733167	-35.9479392	225	1	1.08889	1.00444;
	333	1	47.6	-5.2	0	0	1	1.04957883	-31.904571	225	1	1.08889	1.00444;
	2072	1	110.4	-2	0	0	1	1.04245117	-30.9540462	225	1	1.08889	1.00444;
	334	1	111.9	35.6	0	0	1	1.01766011	-46.6337265	225	1	1.08889	0.888889;
	335	1	218.9	-21.9	0	0	1	1.04546696	-24.8086397	225	1	1.08444	1.00444;
	336	1	-0	-0	0	0	1	1.03511799	-22.3561288	225	1	1.08444	1.00444;
	337	1	-0.6	6.7	0	0	1	1.03534263	-22.4024106	225	1	1.08444	1.00444;
	338	1	-0.8	0.3	0	0	1	1.03585737	-22.5234722	225	1	1.08444	1.00444;
	339	1	-1.5	2.5	0	0	1	1.05372654	-22.9444351	380	1	1.10263	1.04211;
	340	1	0	0	0	0	1	1.04859447	-15.3910857	225	1	1.08889	0.933333;
	341	1	33.8	7.7	0	0	1	1.02629092	-41.429107	225	1	1.08889	1.00444;
	342	1	25.1	2.5	0	0	1	1.04799131	-36.5644797	225	1	1.08889	1.00444;
	343	1	90	0.8	0	-80	1	1.04294701	-40.7269469	225	1	1.08889	1.00444;
	345	1	40.6	-7.8	0	0	1	1.04979203	-27.8428585	225	1	1.08889	0.933333;
	346	1	120.4	8.9	0	0	1	1.04860582	-28.3825174	225	1	1.08889	0.933333;
	347	1	0	0	0	0	1	1.04955147	-25.3061732	380	1	1.10526	1.03947;
	348	1	-1.7	0.4	0	0	1	1.03584268	-22.60962	225	1	1.08444	1.00444;
	350	1	0	0	0	0	1	1.05381704	-22.971569	380	1	1.10263	1.04211;
	351	1	94.8	-2.9	0	0	1	1.03355448	-40.4794871	225	1	1.08889	1.00444;
	352	1	-6.2	-11.5	0	0	1	1.03432572	-40.4718281	225	1	1.08889	1.00444;
	353	1	73.9	-6.2	0	0	1	1.04081664	-31.6534845	225	1	1.09066	0.986667;
	354	1	111.6	-8.6	0	0	1	1.04517843	-11.9987005	225	1	1.08444	1.00889;
	355	2	0	0	0	0	1	1.05	-15.1386729	225	1	1.1	0.9;
	356	2	0	0	0	0	1	1.047	-16.31985	225	1	1.0841	0.95;
	357	1	0	0	0	0	1	1.05497496	-1.08876209	380	1	1.10263	1.05526;
	358	1	21.1	15.6	0	0	1	1.02743426	-11.6070507	225	1	1.08889	0.933333;
	359	1	54	-15.6	0	0	1	1.04421469	-32.5802794	225	1	1.08618	1.00444;
	360	1	7.3	-14.5	0	0	1	1.04407181	-16.0410153	225	1	1.08889	0.933333;
	361	1	19.1	5	0	0	1	1.04436675	-16.0525428	225	1	1.08889	0.933333;
	362	1	0	0	0	0	1	1.043655	-16.4109962	225	1	1.08889	0.933333;
	363	1	0	0	0	0	1	1.05137211	-13.9490827	380	1	1.10526	1.03467;
	364	1	23.9	-12.1	0	0	1	1.03508623	-33.1394779	225	1	1.08889	0.986667;
	365	1	113.3	2.9	0	0	1	1.02983545	-31.3546099	225	1	1.08889	0.986667;
	366	1	-12.9	13.9	0	0	1	0.982852259	-27.7477783	150	1	1.1	0.9;
	367	1	55.9	-12	0	0	1	1.02487426	-46.806499	225	1	1.08889	0.933333;
	2014	1	0	0	0	-80	1	1.01757231	-34.3364133	20	1	1.4	0.9;
	368	1	114.8	16.5	0	0	1	1.02179864	-34.1437191	225	1	1.08889	0.986667;
	369	1	0	0	0	0	1	1.05356851	-33.0950859	380	1	1.10526	1.03947;
	370	1	52.4	7.6	0	0	1	1.02609155	-41.4558861	225	1	1.08889	1.00444;
	371	1	0	0	0	0	1	1.04797281	-36.5064028	225	1	1.08889	1.00444;
	372	1	0	0	0	0	1	1.04390915	-17.4195878	380	1	1.10526	1.03947;
	373	1	0	0	0	0	1	1.03927192	-16.7949422	380	1	1.10526	1.03947;
	374	1	25.6	5.5	0	0	1	1.03587232	-40.1561621	225	1	1.08889	1.00444;
	375	1	24.1	2.2	0	0	1	1.03652509	-41.2045261	225	1	1.08889	1.00444;
	376	1	-2.9	-7.4	0	0	1	1.048279	-5.99003845	225	1	1.08444	1.00889;
	377	1	0	0	0	0	1	1.027206	-47.2877336	225	1	1.08889	0.888889;
	378	1	51.5	21.6	0	0	1	1.03633919	-18.5939885	225	1	1.08889	0.933333;
	379	1	0	0	0	0	1	1.05048395	-17.6697897	225	1	1.08889	1;
	380	1	0.2	0.1	0	0	1	1.03863842	-6.74047348	225	1	1.08444	1.00889;
	381	1	0	0	0	0	1	1.055245	-0.847767978	380	1	1.10526	1.05263;
	382	1	0	0	0	0	1	1.05520842	-0.844769322	380	1	1.10526	1.05263;
	383	1	0	0	0	0	1	1.05528319	-0.828404347	380	1	1.10526	1.05263;
	384	1	0	0	0	0	1	1.05487113	-1.09971239	380	1	1.10526	1.05263;
	385	1	12.8	1.6	0	0	1	1.04884628	-28.5701178	225	1	1.08889	0.933333;
	386	1	0	0	0	0	1	1.06154822	-9.3564425	150	1	1.08	0.966667;
	387	1	76	0.3	0	0	1	1.04034875	-6.0693636	225	1	1.08444	1.00889;
	388	1	90.6	16.2	0	0	1	1.05428654	-16.2901534	225	1	1.08889	1;
	390	1	0	0	0	0	1	1.05431527	-11.9941404	380	1	1.10526	1.05263;
	391	1	1.4	-0.4	0	0	1	1.03600472	-40.8936165	225	1	1.08889	0.888889;
	392	1	0	0	0	0	1	1.03367158	-11.3681521	225	1	1.08444	1.00889;
	393	1	10.3	-1.3	0	0	1	1.02659701	-27.4549881	225	1	1.08889	0.986667;
	394	1	70.2	9.1	0	0	1	1.04297535	-32.3253444	225	1	1.09515	0.986667;
	395	1	44.8	-25	0	0	1	1.0436117	-18.6913284	225	1	1.08889	0.933333;
	396	2	0	0	0	0	1	1.015	-7.00067553	20	1	1.1	0.9;
	397	1	0	0	0	0	1	1.06171386	-9.345379	150	1	1.08	0.966667;
	398	1	159.8	-1.9	0	0	1	1.03326681	-28.7132659	225	1	1.08444	1.00444;
	399	1	52.9	18.2	0	0	1	1.03581471	-38.1581391	225	1	1.09125	0.906667;
	400	1	0	0	0	0	1	1.02365719	-2.01285925	225	1	1.08889	0.977778;
	401	1	0	0	0	0	1	1.02331198	-1.71049309	225	1	1.08889	0.977778;
	402	1	33	11.5	0	0	1	1.04277188	-40.8988758	225	1	1.08889	1.00444;
	403	1	74.8	9.4	0	0	1	1.03645414	-41.0868708	225	1	1.08889	1.00444;
	404	1	25.3	-19.4	0	0	1	1.02126516	-46.7037262	225	1	1.08889	0.92;
	405	1	0	0	0	0	1	1.03665096	-36.1986631	225	1	1.08889	1.00444;
	406	1	151.6	7.9	0	0	1	1.03345984	-35.636685	225	1	1.08889	1.00444;
	407	1	28.1	1	0	0	1	1.03620862	-39.6930493	225	1	1.08889	1.00444;
	408	1	48.6	-17.6	0	0	1	1.04179822	-18.5314134	225	1	1.08889	0.933333;
	409	1	103.5	-2.1	0	0	1	1.05344603	-27.0444609	225	1	1.08449	1.00444;
	410	1	17.9	2.6	0	0	1	1.04800495	-36.5412713	225	1	1.09028	1.00444;
	411	1	0	0	0	0	1	1.04321874	-32.0162934	225	1	1.09787	0.986667;
	412	1	45.4	4.6	0	0	1	1.04895316	-16.7245822	225	1	1.08444	1.00889;
	413	1	59.3	-1.6	0	0	1	1.04320539	-32.0295149	225	1	1.09778	0.986667;
	414	1	139.2	-6.3	0	0	1	1.04136174	-31.633125	225	1	1.08994	0.986667;
	416	1	97.9	14.3	0	0	1	1.04196835	-6.23255181	225	1	1.08444	1.00889;
	418	1	39.8	11.4	0	0	1	1.04979103	-16.4313786	225	1	1.08889	0.933333;
	419	1	12.4	-12	0	0	1	1.04173306	-32.1865937	225	1	1.08889	0.986667;
	420	1	67.3	-48.8	0	0	1	1.03800752	-26.7145706	225	1	1.08444	1.00444;
	421	1	0	0	0	0	1	1.04210967	-27.3526155	380	1	1.10263	1.04211;
	422	1	55.2	21.1	0	0	1	1.02767034	-42.4357199	225	1	1.08889	0.906667;
	423	1	54.2	-25.9	0	0	1	1.05641553	-19.7748757	225	1	1.08889	1;
	424	1	29.5	4.9	0	0	1	1.05269937	-34.9194366	225	1	1.08889	1.00444;
	425	1	3.5	-5.7	0	0	1	1.02346824	-1.60478678	225	1	1.08444	1.00889;
	426	1	0	0	0	0	1	1.03376004	-45.6311977	150	1	1.10667	0.946667;
	427	1	0	-0.5	0	0	1	1.01905074	-46.779964	225	1	1.08889	0.888889;
	428	1	29.8	-0.8	0	0	1	1.03868027	-16.7726106	225	1	1.08889	0.933333;
	429	1	15.6	-0.3	0	0	1	1.02234301	-45.1731451	225	1	1.08889	0.888889;
	430	1	0	0	0	0	1	1.01523707	-48.4747253	225	1	1.08889	0.888889;
	431	1	0	0	0	0	1	1.09635089	-35.0510453	380	1	1.10526	1.03947;
	432	1	65.1	1.4	0	0	1	1.02953042	-36.8837636	225	1	1.08889	0.986667;
	433	1	82.9	54.3	0	0	1	1.00966365	4.05903491	225	1	1.04444	0.982222;
	434	1	0	0	0	0	1	1.04968848	-32.8711477	225	1	1.08444	1.00444;
	435	1	110	-8	0	0	1	1.05036927	-21.5838012	225	1	1.08444	1.00444;
	436	1	0	0	0	0	1	1.050547	-18.1877714	380	1	1.10263	1.04211;
	437	1	0	0	0	0	1	1.02068687	-45.0047771	225	1	1.15556	0.888889;
	438	1	0	0	0	0	1	1.02070102	-44.8890289	225	1	1.15556	0.888889;
	439	1	59.2	-11	0	0	1	1.04802884	-33.741221	225	1	1.08444	1.00444;
	2020	1	0	0	0	-64	1	0.988936986	-25.017837	20	1	1.05	0.991275;
	440	1	84.4	-24.6	0	0	1	1.04359527	-24.792985	225	1	1.08444	1.00444;
	441	1	91.2	6.1	0	0	1	1.05687243	-23.7282292	380	1	1.10263	1.04211;
	442	1	0	0	0	0	1	1.05500646	-13.4403913	225	1	1.08889	1;
	443	1	0	0	0	0	1	1.05367707	-8.09588103	380	1	1.10526	1.05263;
	444	1	59.8	8.6	0	0	1	1.03986838	-21.6449774	225	1	1.08889	1;