function mpc = case2746wp
%CASE2746WP  Power flow data for Polish system - winter 2003-04 evening peak.
%   Please see CASEFORMAT for details on the case file format.
%
%   This case represents the Polish 400, 220 and 110 kV networks during
%   winter 2003-04 evening peak conditions. Multiple centrally
%   dispatchable generators at a bus have not been aggregated.
%   Generators that are not centrally dispatchable in the Polish
%   energy market are given a cost of zero.
%
%   This data was graciously provided by, and is distributed with the
%   permission of, Roman Korab <roman.korab@polsl.pl>.
%
%   MODIFIED 2018-10-16 (RDZ): Corrected sign of phase shifter angles
%           in this case to reflect correction of phase shifter sign
%           convention in MATPOWER code made on 2007-06-21 and included
%           in MATPOWER v3.2. Original version of this case was based
%           on the old sign convention. (Thanks to Mikhail Khokhlov and
%           Dr. Artjoms Obusevs for reporting.)

%   MATPOWER

%% MATPOWER Case Format : Version 2
mpc.version = '2';

%%-----  Power Flow Data  -----%%
%% system MVA base
mpc.baseMVA = 100;

%% bus data
%	bus_i	type	Pd	Qd	Gs	Bs	area	Vm	Va	baseKV	zone	Vmax	Vmin	lam_P	lam_Q	mu_Vmax	mu_Vmin
mpc.bus = [
	1	1	0	0	0	0	1	1.1003391	-0.61480726	220	1	1.11	0.95	98.3658	0.1938	0.0000	0.0000;
	2	1	0	0	0	0	1	1.1017662	1.2131549	220	1	1.11	0.95	97.9988	0.1556	0.0000	0.0000;
	3	1	0	0	0	0	1	1.0645289	-26.339776	220	1	1.11	0.95	113.5931	0.8243	0.0000	0.0000;
	4	1	0	0	0	0	1	1.0850159	-6.0862751	220	1	1.11	0.95	101.3462	0.7470	0.0000	0.0000;
	5	1	0	0	0	0	1	1.0850783	-6.0889889	220	1	1.11	0.95	101.3481	0.7457	0.0000	0.0000;
	6	1	0	0	0	0	1	1.059595	-17.220536	220	1	1.11	0.95	106.5828	1.2223	0.0000	0.0000;
	7	1	0	0	0	0	1	1.0597417	-17.210267	220	1	1.11	0.95	106.5743	1.2187	0.0000	0.0000;
	8	1	0	0	0	0	1	1.0286868	-13.591482	400	1	1.05	0.95	105.2553	0.6873	0.0000	0.0000;
	9	1	0	0	0	0	1	1.0287027	-13.586305	400	1	1.05	0.95	105.2527	0.6857	0.0000	0.0000;
	10	1	0	0	0	0	1	1.0408993	-17.565546	220	1	1.11	0.95	107.7378	1.8165	0.0000	0.0000;
	11	1	0	0	0	0	1	1.0407987	-17.552694	220	1	1.11	0.95	107.7369	1.8191	0.0000	0.0000;
	12	1	0	0	0	0	1	1.0408325	-17.544154	220	1	1.11	0.95	107.7347	1.8184	0.0000	0.0000;
	13	1	0	0	0	0	1	1.027382	-11.769431	400	1	1.05	0.95	104.4075	1.0389	0.0000	0.0000;
	14	1	0	0	0	0	1	1.0274267	-11.759591	400	1	1.05	0.95	104.4018	1.0365	0.0000	0.0000;
	15	1	0	0	0	0	1	1.0277821	-16.636616	400	1	1.05	0.95	106.1196	0.0526	0.0000	0.0000;
	16	1	0	0	0	0	1	1.0277821	-16.636616	400	1	1.05	0.95	106.1196	0.0526	0.0000	0.0000;
	17	2	11	40	0	0	1	1.1051114	-21.25728	220	1	1.11	0.95	109.5314	0.0007	0.0000	0.0000;
	18	2	14	40	0	0	1	1.1051329	-21.256172	220	1	1.11	0.95	109.5301	0.0000	0.0000	0.0203;
	19	1	0	0	0	0	1	1.0899007	-4.9335602	220	1	1.11	0.95	100.6721	0.6066	0.0000	0.0000;
	20	1	0	0	0	0	1	1.0899369	-4.9324552	220	1	1.11	0.95	100.6736	0.6058	0.0000	0.0000;
	21	1	0	0	0	0	1	1.0605639	-19.1108	220	1	1.11	0.95	108.3430	1.3062	0.0000	0.0000;
	22	1	0	0	0	0	1	1.0604975	-19.112544	220	1	1.11	0.95	108.3441	1.3075	0.0000	0.0000;
	23	1	0	0	0	0	1	1.0441797	-17.458847	220	1	1.11	0.95	107.6600	1.7291	0.0000	0.0000;
	24	1	0	0	0	0	1	1.091933	-2.8028486	220	1	1.11	0.95	99.8073	0.5296	0.0000	0.0000;
	25	1	0	0	0	0	1	1.0154431	-13.879116	400	1	1.05	0.95	105.4805	0.4745	0.0000	0.0000;
	26	2	46.738	72.054	0	0	1	1.11	-0.25095024	220	1	1.11	0.95	98.1840	0.0000	1871.2524	0.0000;
	27	2	85.493	122.06	0	0	1	1.11	1.4731337	220	1	1.11	0.95	97.8808	0.0000	2497.9903	0.0000;
	28	3	60	110	0	0	1	1.0460529	0	400	1	1.05	0.95	98.8168	-0.1638	0.0000	0.0000;
	29	2	60.097	90	0	0	1	1.0460925	0.00572232	400	1	1.05	0.95	98.8125	-0.1626	0.0000	0.0000;
	30	1	0	0	0	0	1	1.048206	-18.395467	220	1	1.11	0.95	108.2832	1.5095	0.0000	0.0000;
	31	1	0	0	0	0	1	1.045761	-1.4350337	400	1	1.05	0.95	98.9272	-0.4853	0.0000	0.0000;
	32	1	0	0	0	0	1	1.0385822	-17.912484	220	1	1.11	0.95	107.9744	1.8681	0.0000	0.0000;
	33	1	0	0	0	0	1	1.0919388	-2.8017966	220	1	1.11	0.95	99.8069	0.5295	0.0000	0.0000;
	34	1	0	0	0	0	1	1.0925699	-9.5096398	220	1	1.11	0.95	103.0266	0.5256	0.0000	0.0000;
	35	1	0	0	0	0	1	1.0894807	-13.144346	220	2	1.11	0.95	104.6817	0.0239	0.0000	0.0000;
	36	1	0	0	0	0	1	1.0925005	-12.843932	220	2	1.11	0.95	104.6851	-0.0233	0.0000	0.0000;
	37	1	0	0	0	0	1	1.0970263	-11.092748	220	2	1.11	0.95	103.5611	-0.0732	0.0000	0.0000;
	38	1	0	0	0	0	1	1.0970174	-11.097136	220	2	1.11	0.95	103.5634	-0.0730	0.0000	0.0000;
	39	1	0	0	0	0	1	1.0760617	-15.995023	220	2	1.11	0.95	106.6792	-0.1631	0.0000	0.0000;
	40	1	0	0	0	0	1	1.1040849	-9.3848203	220	2	1.11	0.95	102.8022	-0.2150	0.0000	0.0000;
	41	1	0	0	0	0	1	1.1040405	-9.3830473	220	2	1.11	0.95	102.8019	-0.2146	0.0000	0.0000;
	42	1	0	0	0	0	1	1.0435696	-9.7361406	400	2	1.05	0.95	102.8310	-0.3182	0.0000	0.0000;
	43	2	11.436	0	0	0	1	1.1099957	-9.8167066	220	2	1.11	0.95	102.8898	0.0019	0.0000	0.0000;
	44	2	24	0	0	0	1	1.11	-9.7892115	220	2	1.11	0.95	102.8801	0.0000	1267.4360	0.0000;
	45	2	20	0	0	0	1	1.0486321	-10.600385	400	2	1.05	0.95	103.5574	0.0000	0.0000	0.0000;
	46	1	0	0	0	0	1	1.048661	-10.601895	400	2	1.05	0.95	103.5562	-0.0017	0.0000	0.0000;
	47	1	0	0	0	0	1	1.1003191	-9.9747468	220	2	1.11	0.95	103.2216	-0.1332	0.0000	0.0000;
	48	1	0	0	0	0	1	1.0353007	-15.497399	400	2	1.05	0.95	104.6752	-0.3477	0.0000	0.0000;
	49	1	0	0	0	0	1	1.0352697	-15.506312	400	2	1.05	0.95	104.6797	-0.3469	0.0000	0.0000;
	50	1	0	0	0	0	1	1.05	-11.729501	400	2	1.05	0.95	103.9640	-0.4380	2649.8675	0.0000;
	51	1	0	0	0	0	1	1.0831843	-14.831927	220	2	1.11	0.95	106.0233	-0.1063	0.0000	0.0000;
	52	1	0	0	0	0	1	1.0831697	-14.83156	220	2	1.11	0.95	106.0243	-0.1064	0.0000	0.0000;
	53	1	0	0	0	0	1	1.0439979	-11.198006	400	2	1.05	0.95	103.5431	-0.2198	0.0000	0.0000;
	54	1	0	0	0	0	1	1.0439983	-11.196343	400	2	1.05	0.95	103.5419	-0.2206	0.0000	0.0000;
	55	2	12	0	0	0	1	1.1026056	-9.4089303	220	2	1.11	0.95	102.6793	-0.1306	0.0000	0.0000;
	56	2	11.436	0	0	0	1	1.1025184	-9.405703	220	2	1.11	0.95	102.6756	-0.1282	0.0000	0.0000;
	57	2	12	0	0	0	1	1.0456443	-10.170777	400	2	1.05	0.95	102.9624	-0.4555	0.0000	0.0000;
	58	2	11.436	0	0	0	1	1.0456662	-10.175736	400	2	1.05	0.95	102.9649	-0.4554	0.0000	0.0000;
	59	2	167.518	60	0	0	1	1.1017247	-11.30084	220	2	1.11	0.95	103.6382	0.0447	0.0000	0.0000;
	60	1	0	0	0	0	1	1.1017324	-11.300903	220	2	1.11	0.95	103.6376	0.0440	0.0000	0.0000;
	61	1	0	0	0	0	1	1.1005278	-10.134063	220	2	1.11	0.95	103.1603	-0.1600	0.0000	0.0000;
	62	1	0	0	0	0	1	1.1036005	-11.047572	220	2	1.11	0.95	103.6562	0.0311	0.0000	0.0000;
	63	1	0	0	0	0	1	1.1035983	-11.050757	220	2	1.11	0.95	103.6568	0.0317	0.0000	0.0000;
	64	1	0	0	0	0	1	1.0468475	-11.759437	400	2	1.05	0.95	103.3469	-0.6450	0.0000	0.0000;
	65	1	0	0	0	0	1	1.046831	-11.771438	400	2	1.05	0.95	103.3508	-0.6455	0.0000	0.0000;
	66	1	0	0	0	0	1	1.0893159	-12.668676	220	2	1.11	0.95	104.3236	-0.0107	0.0000	0.0000;
	67	1	0	0	0	0	1	1.0914437	-12.423754	220	2	1.11	0.95	104.1800	-0.0365	0.0000	0.0000;
	68	1	0	0	0	0	1	1.083607	-14.320478	220	2	1.11	0.95	105.8181	-0.0576	0.0000	0.0000;
	69	1	0	0	0	0	1	1.1005323	-4.4705794	220	3	1.11	0.95	100.1491	-0.1679	0.0000	0.0000;
	70	1	7.123	0	0	0	1	1.0980231	-9.7009113	220	3	1.11	0.95	103.0168	0.0335	0.0000	0.0000;
	71	1	8.31	0.933	0	0	1	1.0979915	-9.703589	220	3	1.11	0.95	103.0192	0.0343	0.0000	0.0000;
	72	1	0	0	0	0	1	1.1059097	-4.3482203	220	3	1.11	0.95	99.8543	0.0998	0.0000	0.0000;
	73	1	0	0	0	0	1	1.1059616	-4.339125	220	3	1.11	0.95	99.8509	0.0987	0.0000	0.0000;
	74	1	0	0	0	0	1	1.1013537	-4.7646624	220	3	1.11	0.95	100.0408	0.1135	0.0000	0.0000;
	75	1	0	0	0	0	1	1.1013148	-4.7687846	220	3	1.11	0.95	100.0426	0.1140	0.0000	0.0000;
	76	1	0	0	0	0	1	1.1084923	-3.4136449	220	3	1.11	0.95	99.5287	0.0371	0.0000	0.0000;
	77	1	0	0	0	0	1	1.1084612	-3.4216098	220	3	1.11	0.95	99.5330	0.0382	0.0000	0.0000;
	78	2	27	70	0	0	1	1.11	-3.7286027	220	3	1.11	0.95	99.5068	0.0000	748.3478	0.0000;
	79	2	9	21	0	0	1	1.1091061	-3.9026747	220	3	1.11	0.95	99.6306	0.0011	0.0000	0.0000;
	80	1	10.328	2.61	0	0	1	1.0984814	-5.1340225	220	3	1.11	0.95	100.4225	0.2765	0.0000	0.0000;
	81	1	0	0	0	0	1	1.0984976	-5.1327611	220	3	1.11	0.95	100.4220	0.2763	0.0000	0.0000;
	82	2	35	108	0	0	1	1.0434596	-3.6593665	400	3	1.05	0.95	99.2008	0.0000	0.0000	0.0000;
	83	1	0	0	0	0	1	1.1085008	-6.506818	220	3	1.11	0.95	100.5192	0.3124	0.0000	0.0000;
	84	1	0	0	0	0	1	1.1065315	-3.9305775	220	3	1.11	0.95	99.4386	0.0554	0.0000	0.0000;
	85	1	0	0	0	0	1	1.1065344	-3.9324762	220	3	1.11	0.95	99.4405	0.0558	0.0000	0.0000;
	86	1	37.893	12.351	0	0	1	1.1011233	-4.342548	220	3	1.11	0.95	99.9812	-0.1367	0.0000	0.0000;
	87	1	0	0	0	0	1	1.1010914	-4.3484899	220	3	1.11	0.95	99.9832	-0.1370	0.0000	0.0000;
	88	1	0	0	0	0	1	1.1040285	-3.8682504	220	3	1.11	0.95	99.3740	0.0877	0.0000	0.0000;
	89	1	0	0	0	0	1	1.1040076	-3.8696159	220	3	1.11	0.95	99.3753	0.0883	0.0000	0.0000;
	90	1	0	0	0	0	1	1.1043527	-3.8990518	220	3	1.11	0.95	99.7690	-0.1565	0.0000	0.0000;
	91	1	0	0	0	0	1	1.1043307	-3.904573	220	3	1.11	0.95	99.7716	-0.1564	0.0000	0.0000;
	92	1	0	0	0	0	1	1.0455896	-2.2785277	400	3	1.05	0.95	99.4873	-0.2606	0.0000	0.0000;
	93	1	0	0	0	0	1	1.0455942	-2.2803837	400	3	1.05	0.95	99.4875	-0.2610	0.0000	0.0000;
	94	1	0	0	0	0	1	1.1078409	-3.6402286	220	3	1.11	0.95	99.0458	0.0213	0.0000	0.0000;
	95	1	0	0	0	0	1	1.1078802	-3.6395637	220	3	1.11	0.95	99.0452	0.0211	0.0000	0.0000;
	96	1	0	0	0	0	1	1.1052279	-5.5721529	220	3	1.11	0.95	100.2120	0.1872	0.0000	0.0000;
	97	1	0	0	0	0	1	1.1052541	-5.5767843	220	3	1.11	0.95	100.2128	0.1879	0.0000	0.0000;
	98	1	16.027	7.274	0	0	1	1.1054331	-4.6685289	220	3	1.11	0.95	100.0477	-0.0303	0.0000	0.0000;
	99	1	7.764	0.258	0	0	1	1.1054199	-4.6735493	220	3	1.11	0.95	100.0498	-0.0308	0.0000	0.0000;
	100	1	0	0	0	0	1	1.098073	-9.6845182	220	3	1.11	0.95	103.0080	0.0336	0.0000	0.0000;
	101	1	0	0	0	0	1	1.0980546	-9.6842434	220	3	1.11	0.95	103.0072	0.0341	0.0000	0.0000;
	102	1	0	0	0	0	1	1.1036484	-4.4810497	220	3	1.11	0.95	100.1615	0.1646	0.0000	0.0000;
	103	1	0	0	0	0	1	1.1035819	-4.4911311	220	3	1.11	0.95	100.1660	0.1662	0.0000	0.0000;
	104	2	14	40	0	0	1	1.11	-3.3754895	220	3	1.11	0.95	99.0705	0.0000	851.4354	0.0000;
	105	2	14	40	0	0	1	1.1099947	-3.3760543	220	3	1.11	0.95	99.0679	0.0010	0.0000	0.0000;
	106	2	7	18	0	0	1	1.1076732	-3.5666718	220	3	1.11	0.95	99.1312	-0.0000	0.0000	0.0000;
	107	2	8	15	0	0	1	1.1075967	-3.5663387	220	3	1.11	0.95	99.1331	0.0009	0.0000	0.0000;
	108	1	1.044	0	0	0	1	1.1033476	-5.1479288	220	3	1.11	0.95	100.3152	-0.0853	0.0000	0.0000;
	109	1	1.259	0	0	0	1	1.1033898	-5.1544483	220	3	1.11	0.95	100.3166	-0.0846	0.0000	0.0000;
	110	1	0	0	0	0	1	1.1035377	-6.3893921	220	3	1.11	0.95	101.1866	0.0199	0.0000	0.0000;
	111	1	0	0	0	0	1	1.0950251	-5.1667375	220	3	1.11	0.95	100.4766	0.3798	0.0000	0.0000;
	112	1	0	0	0	0	1	1.095049	-5.1665381	220	3	1.11	0.95	100.4764	0.3794	0.0000	0.0000;
	113	1	0	0	0	0	1	1.0995271	-5.044646	220	3	1.11	0.95	100.3684	0.2578	0.0000	0.0000;
	114	1	0	0	0	0	1	1.0995945	-5.0347076	220	3	1.11	0.95	100.3643	0.2564	0.0000	0.0000;
	115	1	0	0	0	0	1	1.0439081	-5.9525365	400	3	1.05	0.95	100.4302	-1.3328	0.0000	0.0000;
	116	2	0	0	0	0	1	1.1077452	-4.3817951	220	3	1.11	0.95	99.8878	0.0005	0.0000	0.0000;
	117	2	8	15	0	0	1	1.1077753	-4.3750278	220	3	1.11	0.95	99.8858	0.0000	0.0000	0.0000;
	118	2	5.5	10	0	0	1	1.1078928	-5.7187611	220	3	1.11	0.95	100.8745	-0.0648	0.0000	0.0000;
	119	1	0	0	0	0	1	1.1078551	-5.7307042	220	3	1.11	0.95	100.8794	-0.0642	0.0000	0.0000;
	120	1	0	0	0	0	1	1.0486473	-10.372175	400	3	1.05	0.95	102.8601	-0.8607	0.0000	0.0000;
	121	1	0	0	0	0	1	1.048686	-10.364416	400	3	1.05	0.95	102.8559	-0.8627	0.0000	0.0000;
	122	1	0	0	0	0	1	1.0499922	-6.1506754	400	3	1.05	0.95	100.5772	-2.3753	0.0000	0.0000;
	123	1	0	0	0	0	1	1.05	-6.1454067	400	3	1.05	0.95	100.5753	-2.3844	29819.5951	0.0000;
	124	1	0	0	0	0	1	1.1038618	-6.4994385	220	3	1.11	0.95	101.3365	-0.0037	0.0000	0.0000;
	125	2	18.343	21.865	0	0	1	1.1083176	-3.9535039	220	3	1.11	0.95	99.5430	0.0000	0.0000	0.0000;
	126	2	28.469	34.292	0	0	1	1.1082749	-3.9550628	220	3	1.11	0.95	99.5460	0.0025	0.0000	0.0000;
	127	2	28	66	0	0	1	1.0426336	-5.1240534	400	3	1.05	0.95	100.0312	-0.6133	0.0000	0.0000;
	128	1	0	0	0	0	1	1.0426497	-5.1264675	400	3	1.05	0.95	100.0321	-0.6163	0.0000	0.0000;
	129	1	0	0	0	0	1	1.1003489	-4.4658462	220	3	1.11	0.95	100.0378	-0.1398	0.0000	0.0000;
	130	1	0	0	0	0	1	1.1003745	-4.4621846	220	3	1.11	0.95	100.0349	-0.1397	0.0000	0.0000;
	131	1	0	0	0	0	1	1.1026419	-4.1537245	220	3	1.11	0.95	99.8703	-0.1381	0.0000	0.0000;
	132	2	3	18	0	0	1	1.11	-2.6939208	220	3	1.11	0.95	99.1843	0.0000	860.4661	0.0000;
	133	2	2	6	0	0	1	1.11	-3.0673769	220	3	1.11	0.95	99.3612	0.0000	428.7704	0.0000;
	134	2	15.447	12.88	0	0	1	1.11	-10.714442	220	4	1.11	0.95	103.4466	0.0000	532.4155	0.0000;
	135	2	5.255	-0.357	0	0	1	1.1098762	-10.723949	220	4	1.11	0.95	103.4495	0.0024	0.0000	0.0000;
	136	1	0	0	0	0	1	1.0804168	-12.976961	220	4	1.11	0.95	102.4302	0.8590	0.0000	0.0000;
	137	1	0	0	0	0	1	1.0862695	-11.160281	220	4	1.11	0.95	101.2356	0.6887	0.0000	0.0000;
	138	1	0	0	0	0	1	1.0208082	-9.8994847	400	4	1.05	0.95	101.1353	0.6360	0.0000	0.0000;
	139	1	0	0	0	0	1	1.0208188	-9.9009404	400	4	1.05	0.95	101.1362	0.6358	0.0000	0.0000;
	140	1	0	0	0	0	1	1.0929466	-21.517302	220	4	1.11	0.95	110.4019	0.4199	0.0000	0.0000;
	141	1	0	0	0	0	1	1.0936734	-27.850208	220	4	1.11	0.95	114.1140	0.4044	0.0000	0.0000;
	142	1	0	0	0	0	1	1.0936734	-27.850208	220	4	1.11	0.95	114.1140	0.4044	0.0000	0.0000;
	143	1	0	0	0	0	1	1.0979678	-24.81337	220	4	1.11	0.95	111.2129	0.8957	0.0000	0.0000;
	144	1	0	0	0	0	1	1.0967448	-13.511963	220	4	1.11	0.95	101.8406	0.4787	0.0000	0.0000;
	145	1	0	0	0	0	1	1.0967448	-13.511963	220	4	1.11	0.95	101.8406	0.4787	0.0000	0.0000;
	146	2	10.954	-0.465	0	0	1	1.1096665	-13.527397	220	4	1.11	0.95	104.8461	0.0247	0.0000	0.0000;
	147	2	10.812	-0.465	0	0	1	1.1096461	-13.538207	220	4	1.11	0.95	104.8485	0.0260	0.0000	0.0000;
	148	2	11.5	6.86	0	0	1	1.11	-25.675039	220	4	1.11	0.95	112.2754	0.0000	1722.1892	0.0000;
	149	1	1.634	3.038	0	0	1	1.1099958	-25.669786	220	4	1.11	0.95	112.2713	0.0006	0.0000	0.0000;
	150	2	8.087	-0.38	0	0	1	1.0367199	-22.19321	400	4	1.05	0.95	111.2998	-0.2377	0.0000	0.0000;
	151	2	16.174	-0.76	0	0	1	1.0367522	-22.189004	400	4	1.05	0.95	111.2966	-0.2386	0.0000	0.0000;
	152	1	0	0	0	0	1	1.0577636	-21.642084	220	4	1.11	0.95	111.0636	1.8396	0.0000	0.0000;
	153	1	0	0	0	0	1	1.0746088	-20.259864	220	4	1.11	0.95	108.1496	1.8476	0.0000	0.0000;
	154	1	0	0	0	0	1	1.0746911	-20.253562	220	4	1.11	0.95	108.1448	1.8458	0.0000	0.0000;
	155	2	30.555	-3.555	0	0	1	1.11	-7.0014325	220	4	1.11	0.95	98.9764	0.0000	6606.4137	0.0000;
	156	2	14.679	-3.566	0	0	1	1.11	-8.0966014	220	4	1.11	0.95	99.5878	0.0000	8240.7403	0.0000;
	157	1	0	0	0	0	1	1.11	-7.0014325	220	4	1.11	0.95	98.9764	0.0000	0.0000	0.0000;
	158	1	0	0	0	0	1	1.0349647	-6.6407189	400	4	1.05	0.95	99.4370	0.1499	0.0000	0.0000;
	159	2	7.385	-1.783	0	0	1	1.0350106	-6.6353335	400	4	1.05	0.95	99.4353	0.1487	0.0000	0.0000;
	160	1	0	0	0	0	1	1.0920139	-28.060831	220	4	1.11	0.95	114.3792	0.4216	0.0000	0.0000;
	161	1	0	0	0	0	1	1.0920139	-28.060831	220	4	1.11	0.95	114.3792	0.4216	0.0000	0.0000;
	162	1	0	0	0	0	1	1.0178137	-10.878788	400	4	1.05	0.95	101.7681	0.8220	0.0000	0.0000;
	163	1	0	0	0	0	1	1.0249576	-9.3400021	400	4	1.05	0.95	101.0197	0.5666	0.0000	0.0000;
	164	1	0	0	0	0	1	1.024957	-9.3420899	400	4	1.05	0.95	101.0201	0.5666	0.0000	0.0000;
	165	2	4.293	-8.964	0	0	1	1.11	-13.624283	220	4	1.11	0.95	104.8666	0.0000	2151.3956	0.0000;
	166	2	23.077	7.176	0	0	1	1.1099978	-13.642791	220	4	1.11	0.95	104.8772	0.0020	0.0000	0.0000;
	167	1	0	0	0	0	1	1.11	-13.624283	220	4	1.11	0.95	104.8666	0.0000	0.0000	0.0000;
	168	1	0	0	0	0	1	1.080865	-26.369943	220	4	1.11	0.95	113.8019	0.1600	0.0000	0.0000;
	169	1	0	0	0	0	1	1.0928314	-27.962378	220	4	1.11	0.95	114.2024	0.4189	0.0000	0.0000;
	170	1	0	0	0	0	1	1.0863977	-22.458467	220	4	1.11	0.95	111.1430	0.5568	0.0000	0.0000;
	171	1	0	0	0	0	1	1.0863007	-22.451991	220	4	1.11	0.95	111.1408	0.5584	0.0000	0.0000;
	172	1	0	0	0	0	1	1.0057335	-23.496497	400	4	1.05	0.95	111.4856	0.4789	0.0000	0.0000;
	173	1	0	0	0	0	1	1.0057335	-23.496497	400	4	1.05	0.95	111.4856	0.4789	0.0000	0.0000;
	174	1	0	0	0	0	1	1.0476566	-17.892455	220	4	1.11	0.95	107.7998	2.5845	0.0000	0.0000;
	175	1	0	0	0	0	1	1.0476686	-17.885603	220	4	1.11	0.95	107.7990	2.5843	0.0000	0.0000;
	176	1	0	0	0	0	1	1.084794	-22.987556	220	4	1.11	0.95	111.4317	0.5802	0.0000	0.0000;
	177	1	0	0	0	0	1	1.0867231	-12.489339	220	4	1.11	0.95	102.1816	0.7107	0.0000	0.0000;
	178	1	0	0	0	0	1	1.0867623	-12.483073	220	4	1.11	0.95	102.1813	0.7101	0.0000	0.0000;
	179	1	0	0	0	0	1	1.0899616	-11.958749	220	4	1.11	0.95	102.2825	0.6845	0.0000	0.0000;
	180	1	0	0	0	0	1	1.0899616	-11.958749	220	4	1.11	0.95	102.2825	0.6845	0.0000	0.0000;
	181	1	0	0	0	0	1	1.0449477	-19.418635	220	4	1.11	0.95	108.4654	2.6634	0.0000	0.0000;
	182	1	0	0	0	0	1	1.0474502	-21.786143	220	5	1.11	0.95	109.5467	-0.0766	0.0000	0.0000;
	183	1	0	0	0	0	1	1.11	-23.407235	220	5	1.11	0.95	110.9010	-1.5077	3341.3081	0.0000;
	184	1	0	0	0	0	1	1.0362829	-21.672063	400	5	1.05	0.95	110.5637	-0.5762	0.0000	0.0000;
	185	1	0	0	0	0	1	1.036306	-21.676526	400	5	1.05	0.95	110.5665	-0.5760	0.0000	0.0000;
	186	1	0	0	0	0	1	1.0181489	-21.198101	400	5	1.05	0.95	109.9911	0.0207	0.0000	0.0000;
	187	1	0	0	0	0	1	1.0181684	-21.2021	400	5	1.05	0.95	109.9940	0.0207	0.0000	0.0000;
	188	1	0	0	0	0	1	1.0217282	-25.032232	220	5	1.11	0.95	112.0495	0.4732	0.0000	0.0000;
	189	1	0	0	0	0	1	1.021804	-25.03367	220	5	1.11	0.95	112.0501	0.4725	0.0000	0.0000;
	190	1	0	0	0	0	1	1.0716712	-22.614136	220	5	1.11	0.95	109.8131	-0.4616	0.0000	0.0000;
	191	1	0	0	0	0	1	1.0715551	-22.615617	220	5	1.11	0.95	109.8138	-0.4625	0.0000	0.0000;
	192	1	0	0	0	0	1	0.99118643	-19.908396	400	5	1.05	0.95	108.9619	0.0646	0.0000	0.0000;
	193	1	0	0	0	0	1	1.0567984	-20.966479	220	5	1.11	0.95	109.2100	0.0979	0.0000	0.0000;
	194	1	0	0	0	0	1	1.056876	-20.962637	220	5	1.11	0.95	109.2090	0.0981	0.0000	0.0000;
	195	1	0	0	0	0	1	1.0075635	-23.167247	400	5	1.05	0.95	111.1787	0.1111	0.0000	0.0000;
	196	1	0	0	0	0	1	1.0075162	-23.172128	400	5	1.05	0.95	111.1820	0.1117	0.0000	0.0000;
	197	1	0	0	0	0	1	1.0630659	-25.644346	220	5	1.11	0.95	112.6796	0.3221	0.0000	0.0000;
	198	1	0	0	0	0	1	1.0631118	-25.637578	220	5	1.11	0.95	112.6765	0.3220	0.0000	0.0000;
	199	1	0	0	0	0	1	1.0382243	-19.747847	400	5	1.05	0.95	109.5722	-0.3075	0.0000	0.0000;
	200	1	0	0	0	0	1	1.0382491	-19.742409	400	5	1.05	0.95	109.5718	-0.3087	0.0000	0.0000;
	201	1	0	0	0	0	1	1.0487566	-23.702354	220	5	1.11	0.95	111.4262	0.5281	0.0000	0.0000;
	202	1	0	0	0	0	1	1.0487178	-23.700417	220	5	1.11	0.95	111.4280	0.5310	0.0000	0.0000;
	203	1	0	0	0	0	1	1.0503208	-21.85558	220	5	1.11	0.95	110.7768	1.0775	0.0000	0.0000;
	204	1	0	0	0	0	1	1.0502407	-21.8697	220	5	1.11	0.95	110.7830	1.0769	0.0000	0.0000;
	205	2	0	0	0	0	1	1.0249085	-19.761423	400	5	1.05	0.95	109.4371	0.0004	0.0000	0.0000;
	206	2	0	0	0	0	1	1.0249172	-19.76116	400	5	1.05	0.95	109.4373	0.0000	0.0000	0.0000;
	207	1	0	0	0	0	1	1.0798658	-25.344948	220	5	1.11	0.95	112.2907	-0.8014	0.0000	0.0000;
	208	1	0	0	0	0	1	1.0798892	-25.338969	220	5	1.11	0.95	112.2865	-0.8038	0.0000	0.0000;
	209	1	8.101	1.5	0	0	1	1.0817848	-23.535002	110	1	1.12	0.95	112.0290	-0.1334	0.0000	0.0000;
	210	1	8.101	1	0	0	1	1.076992	-32.083839	110	1	1.12	0.95	120.3339	1.5128	0.0000	0.0000;
	211	1	9.114	2	0	0	1	1.0847673	-20.8153	110	1	1.12	0.95	107.5431	2.2480	0.0000	0.0000;
	212	1	8.911	7.8	0	0	1	1.0158576	-25.93094	110	1	1.12	0.95	117.0338	5.2337	0.0000	0.0000;
	213	1	4.05	1	0	0	1	1.0739576	-1.9748493	110	1	1.12	0.95	99.1423	0.4609	0.0000	0.0000;
	214	1	9.619	2.5	0	0	1	1.090974	-3.7881561	110	1	1.12	0.95	99.3438	0.4814	0.0000	0.0000;
	215	2	51.981	24.3	0	0	1	1.1081869	-22.026489	110	1	1.12	0.95	107.6029	0.0000	0.0000	0.0000;
	216	1	22.276	2.5	0	0	1	1.1096931	-21.983135	110	1	1.12	0.95	107.4659	-0.2070	0.0000	0.0000;
	217	1	10.126	2	0	0	1	1.1090725	-22.019259	110	1	1.12	0.95	107.5290	-0.1504	0.0000	0.0000;
	218	1	11.138	2	0	0	1	1.1081886	-22.233282	110	1	1.12	0.95	107.8125	-0.0143	0.0000	0.0000;
	219	2	13.163	2.5	0	0	1	1.0770515	-23.881925	110	1	1.12	0.95	112.3679	1.5862	0.0000	0.0000;
	220	1	9.114	2.25	0	0	1	1.0673511	-22.880155	110	1	1.12	0.95	110.7514	2.7143	0.0000	0.0000;
	221	2	0	0	0	0	1	1.094225	-17.684155	110	1	1.12	0.95	103.9522	1.5232	0.0000	0.0000;
	222	2	11.138	2.4	0	0	1	1.0749255	-10.666613	110	1	1.12	0.95	104.6575	0.0483	0.0000	0.0000;
	223	2	17.214	3.1	0	0	1	1.0868619	-22.774723	110	1	1.12	0.95	109.6738	1.7235	0.0000	0.0000;
	224	1	1.519	0.4	0	0	1	1.0544634	-4.6228451	110	1	1.12	0.95	101.4993	0.8091	0.0000	0.0000;
	225	1	5.265	0.8	0	0	1	1.1039848	-23.103048	110	1	1.12	0.95	109.1465	0.1974	0.0000	0.0000;
	226	1	5.569	0.5	0	0	1	1.0978409	-27.540011	110	1	1.12	0.95	114.0974	0.5400	0.0000	0.0000;
	227	1	19.239	2	0	0	1	1.0975432	-22.886404	110	1	1.12	0.95	109.8932	-0.3936	0.0000	0.0000;
	228	1	11.138	2	0	0	1	1.0874769	-23.183685	110	1	1.12	0.95	109.9471	1.5913	0.0000	0.0000;
	229	2	2.633	1.03	0	0	1	1.0988186	-10.72873	110	1	1.12	0.95	103.1419	0.5625	0.0000	0.0000;
	230	2	2.633	1.03	0	0	1	1.099005	-10.723963	110	1	1.12	0.95	103.1379	0.5598	0.0000	0.0000;
	231	1	16.201	6	0	0	1	1.0753426	-23.328745	110	1	1.12	0.95	110.7937	2.1783	0.0000	0.0000;
	232	1	10.126	1.1	0	0	1	1.0926534	-3.6203307	110	1	1.12	0.95	99.1497	0.4447	0.0000	0.0000;
	233	1	9.619	1.5	0	0	1	1.0697437	-12.912459	110	1	1.12	0.95	105.0936	0.7011	0.0000	0.0000;
	234	1	22.277	17	0	0	1	1.0757912	-1.9367456	110	1	1.12	0.95	98.5048	0.5968	0.0000	0.0000;
	235	1	8.607	0.6	0	0	1	1.0864098	-25.948393	110	1	1.12	0.95	113.0900	0.4104	0.0000	0.0000;
	236	1	13.568	4.41	0	0	1	1.1023431	-9.8979079	110	1	1.12	0.95	101.9269	0.5930	0.0000	0.0000;
	237	1	7.695	0.8	0	0	1	1.0851688	-26.097362	110	1	1.12	0.95	113.3063	0.4526	0.0000	0.0000;
	238	1	10.126	1.5	0	0	1	1.0884007	-25.044356	110	1	1.12	0.95	112.1482	0.2544	0.0000	0.0000;
	239	2	4.493	1.175	0	0	1	1.0667379	-24.6879	110	1	1.12	0.95	112.9996	2.2671	0.0000	0.0000;
	240	1	13.872	0.6	0	0	1	1.0882562	-27.355993	110	1	1.12	0.95	113.8467	0.2846	0.0000	0.0000;
	241	1	7.594	2.19	0	0	1	1.1010965	-10.359606	110	1	1.12	0.95	102.5643	0.6251	0.0000	0.0000;
	242	1	10.632	0.4	0	0	1	1.1173341	-5.5827549	110	1	1.12	0.95	98.0259	-3.4396	0.0000	0.0000;
	243	1	0	0	0	0	1	1.117449	-5.5593178	110	1	1.12	0.95	98.0236	-3.4588	0.0000	0.0000;
	244	1	3.038	1.4	0	0	1	1.1138427	-22.272115	110	1	1.12	0.95	109.1819	0.0384	0.0000	0.0000;
	245	1	0	0	0	0	1	1.0813296	0.0903759	110	1	1.12	0.95	97.7998	0.3046	0.0000	0.0000;
	246	2	1.982	5	0	0	1	1.0769806	3.8426518	22	1	1.12	0.95	98.0779	0.0000	0.0000	0.0000;
	247	1	11.138	1.5	0	0	1	1.0890704	-29.263024	110	1	1.12	0.95	116.3804	0.9888	0.0000	0.0000;
	248	1	3.038	0.5	0	0	1	1.1065519	-29.31365	110	1	1.12	0.95	114.7312	1.0420	0.0000	0.0000;
	249	1	3.038	0.5	0	0	1	1.1006223	-28.024538	110	1	1.12	0.95	114.0965	0.6239	0.0000	0.0000;
	250	1	4.05	0.5	0	0	1	1.0502189	-34.428294	110	1	1.12	0.95	125.9132	1.6173	0.0000	0.0000;
	251	1	4.86	0.3	0	0	1	1.1030705	-21.806445	110	1	1.12	0.95	108.0353	0.6194	0.0000	0.0000;
	252	1	19.239	7	0	0	1	1.0878504	-17.342146	110	1	1.12	0.95	105.9358	1.3582	0.0000	0.0000;
	253	1	22.276	4	0	0	1	1.0767828	-23.437364	110	1	1.12	0.95	110.7940	2.0738	0.0000	0.0000;
	254	1	16.201	2	0	0	1	1.0864099	-31.343286	110	1	1.12	0.95	117.7698	1.3001	0.0000	0.0000;
	255	1	24.302	1.5	0	0	1	1.0941665	-27.568	110	1	1.12	0.95	113.9228	0.7667	0.0000	0.0000;
	256	1	5.569	1	0	0	1	1.0955445	-27.69593	110	1	1.12	0.95	113.9625	0.7960	0.0000	0.0000;
	257	1	4.303	0.6	0	0	1	1.0734811	-1.9364021	110	1	1.12	0.95	99.5800	0.4730	0.0000	0.0000;
	258	1	4.303	0.6	0	0	1	1.07341	-1.9531142	110	1	1.12	0.95	99.5862	0.4743	0.0000	0.0000;
	259	1	11.24	3.24	0	0	1	1.0876217	-11.70769	110	1	1.12	0.95	104.4389	0.8626	0.0000	0.0000;
	260	1	7.088	1	0	0	1	1.0468844	-35.030404	110	1	1.12	0.95	126.8275	1.6079	0.0000	0.0000;
	261	1	2.633	1.2	0	0	1	1.0957525	-21.024587	110	1	1.12	0.95	108.0961	1.7503	0.0000	0.0000;
	262	1	11.341	1.8	0	0	1	1.0809573	-20.805908	110	1	1.12	0.95	108.6858	1.9691	0.0000	0.0000;
	263	1	2.329	1.1	0	0	1	1.0840531	-26.816307	110	1	1.12	0.95	113.9400	0.4602	0.0000	0.0000;
	264	1	40.503	34	0	0	1	1.0812759	-0.49888515	110	1	1.12	0.95	98.0373	0.3063	0.0000	0.0000;
	265	1	38.479	33	0	0	1	1.0881063	-3.1108038	110	1	1.12	0.95	98.6688	0.5269	0.0000	0.0000;
	266	1	6.075	1	0	0	1	1.0778791	-22.899078	110	1	1.12	0.95	110.3697	2.1459	0.0000	0.0000;
	267	1	13.67	0.7	0	0	1	1.0841717	-23.703578	110	1	1.12	0.95	111.0193	1.3673	0.0000	0.0000;
	268	1	9.923	1.8	0	0	1	1.1070834	-21.305706	110	1	1.12	0.95	107.3870	0.4119	0.0000	0.0000;
	269	1	13.163	1.5	0	0	1	1.0957912	-23.212633	110	1	1.12	0.95	110.2340	-0.2786	0.0000	0.0000;
	270	1	10.125	1.5	0	0	1	1.0531865	-33.833782	110	1	1.12	0.95	125.0794	1.6235	0.0000	0.0000;
	271	1	18.227	4.5	0	0	1	1.0678305	-22.10534	110	1	1.12	0.95	109.4598	2.8328	0.0000	0.0000;
	272	1	0.304	0.1	0	0	1	1.0753844	-23.528093	110	1	1.12	0.95	112.3207	1.8325	0.0000	0.0000;
	273	1	0.506	0.15	0	0	1	1.1004103	-20.688428	110	1	1.12	0.95	107.4478	1.4364	0.0000	0.0000;
	274	1	0.202	0.06	0	0	1	1.0907468	-21.086827	110	1	1.12	0.95	108.0793	1.8793	0.0000	0.0000;
	275	1	12.88	5.8	0	0	1	1.1032707	-9.4048413	110	1	1.12	0.95	101.6324	0.7997	0.0000	0.0000;
	276	1	8.587	3.87	0	0	1	1.1054521	-9.7355844	110	1	1.12	0.95	101.6205	0.6453	0.0000	0.0000;
	277	1	9.619	1.2	0	0	1	1.0808162	-10.213237	110	1	1.12	0.95	103.8088	-0.0938	0.0000	0.0000;
	278	1	3.038	0.5	0	0	1	1.1047777	-23.124463	110	1	1.12	0.95	109.1708	0.0833	0.0000	0.0000;
	279	1	8.101	0	0	0	1	1.0996948	-24.402518	110	1	1.12	0.95	111.2609	0.2832	0.0000	0.0000;
	280	1	15.188	2	0	0	1	1.0977501	-20.765594	110	1	1.12	0.95	107.7341	1.5358	0.0000	0.0000;
	281	1	9.62	2	0	0	1	1.0731324	-22.384778	110	1	1.12	0.95	109.8008	2.1396	0.0000	0.0000;
	282	1	17.213	13.999	0	0	1	1.0789836	-2.8167993	110	1	1.12	0.95	98.7273	0.6171	0.0000	0.0000;
	283	1	16.202	13	0	0	1	1.0787699	-2.7998144	110	1	1.12	0.95	98.7273	0.6176	0.0000	0.0000;
	284	1	13.771	4.47	0	0	1	1.1028698	-9.2097636	110	1	1.12	0.95	101.4883	0.8583	0.0000	0.0000;
	285	1	15.189	4	0	0	1	1.0944803	-10.459164	110	1	1.12	0.95	102.8630	0.9682	0.0000	0.0000;
	286	1	10.126	1	0	0	1	1.0961235	-26.842822	110	1	1.12	0.95	113.8097	0.4902	0.0000	0.0000;
	287	1	5.063	0	0	0	1	1.1021121	-24.303756	110	1	1.12	0.95	109.9705	0.3685	0.0000	0.0000;
	288	1	3.037	2.5	0	0	1	1.0660203	-23.989307	110	1	1.12	0.95	112.0713	2.4301	0.0000	0.0000;
	289	1	4.05	0.501	0	0	1	1.0902044	-12.850003	110	1	1.12	0.95	105.7921	0.3637	0.0000	0.0000;
	290	1	21.77	6.7	0	0	1	1.0744392	-22.253492	110	1	1.12	0.95	109.6254	2.1057	0.0000	0.0000;
	291	2	15.999	1.6	0	0	1	1.0967354	-21.080597	110	1	1.12	0.95	108.0721	1.6229	0.0000	0.0000;
	292	1	8.202	2.37	0	0	1	1.1049272	-8.8771718	110	1	1.12	0.95	101.0950	0.8335	0.0000	0.0000;
	293	1	5.366	1	0	0	1	1.0850724	-21.892008	110	1	1.12	0.95	109.5035	0.3113	0.0000	0.0000;
	294	2	7.493	0.3	0	0	1	1.081483	-24.234003	110	1	1.12	0.95	111.8991	1.2777	0.0000	0.0000;
	295	1	13.163	0.4	0	0	1	1.0898002	-12.783476	110	1	1.12	0.95	105.6598	0.4190	0.0000	0.0000;
	296	1	6.582	1.5	0	0	1	1.0952139	-9.1123479	110	1	1.12	0.95	102.0099	-0.9808	0.0000	0.0000;
	297	1	10.328	3.36	0	0	1	1.0945644	-10.920415	110	1	1.12	0.95	103.3988	0.7171	0.0000	0.0000;
	298	1	14.885	4.7	0	0	1	1.0974807	-10.825888	110	1	1.12	0.95	103.2775	0.6095	0.0000	0.0000;
	299	2	15.188	4	0	0	1	1.1047419	-22.813814	110	1	1.12	0.95	108.7371	-0.1596	0.0000	0.0000;
	300	1	0	0	0	0	1	1.1057159	-9.7397428	110	1	1.12	0.95	101.6206	0.6306	0.0000	0.0000;
	301	1	5.569	1.2	0	0	1	1.0459164	-5.5659239	110	1	1.12	0.95	102.7966	0.9675	0.0000	0.0000;
	302	1	10.835	3.52	0	0	1	1.105023	-8.866215	110	1	1.12	0.95	101.0821	0.8318	0.0000	0.0000;
	303	1	13.062	3.77	0	0	1	1.101004	-10.34548	110	1	1.12	0.95	102.5415	0.6394	0.0000	0.0000;
	304	1	25.719	7.42	0	0	1	1.1028984	-9.3723973	110	1	1.12	0.95	101.6417	0.8263	0.0000	0.0000;
	305	1	25.72	7.42	0	0	1	1.0950208	-10.964685	110	1	1.12	0.95	103.4445	0.6832	0.0000	0.0000;
	306	2	97.275	54.72	0	0	1	1.0901957	-10.808597	110	1	1.12	0.95	103.3043	0.9479	0.0000	0.0000;
	307	2	62.22	22.54	0	0	1	1.0970189	-10.854078	110	1	1.12	0.95	103.3021	0.6146	0.0000	0.0000;
	308	2	35.918	13.2	0	0	1	1.1031309	-10.406483	110	1	1.12	0.95	102.6465	0.4584	0.0000	0.0000;
	309	1	0	0	0	0	1	1.0947324	-10.936698	110	1	1.12	0.95	103.4159	0.7040	0.0000	0.0000;
	310	2	39.452	17.47	0	0	1	1.1048567	-9.3160316	110	1	1.12	0.95	101.5140	0.7376	0.0000	0.0000;
	311	2	30.853	15.45	0	0	1	1.1050457	-9.9290164	110	1	1.12	0.95	101.8647	0.5093	0.0000	0.0000;
	312	1	15.492	0.8	0	0	1	1.0938205	-11.83344	110	1	1.12	0.95	104.4747	0.4784	0.0000	0.0000;
	313	1	2.531	0.5	0	0	1	1.0998331	-23.035657	110	1	1.12	0.95	109.4912	-0.2293	0.0000	0.0000;
	314	1	3.038	1	0	0	1	1.0641801	-24.139728	110	1	1.12	0.95	112.4006	2.5679	0.0000	0.0000;
	315	1	8.606	2.1	0	0	1	1.0635573	-24.569602	110	1	1.12	0.95	112.9465	2.4907	0.0000	0.0000;
	316	1	11.644	2.6	0	0	1	1.0634985	-24.559774	110	1	1.12	0.95	112.9410	2.4915	0.0000	0.0000;
	317	1	13.67	3.6	0	0	1	1.072301	-21.509098	110	1	1.12	0.95	108.4887	2.7675	0.0000	0.0000;
	318	1	13.366	3.85	0	0	1	1.1030991	-9.2646453	110	1	1.12	0.95	101.5184	0.8431	0.0000	0.0000;
	319	2	19.138	5.52	0	0	1	1.1019686	-9.5603564	110	1	1.12	0.95	101.8157	0.8166	0.0000	0.0000;
	320	1	17.214	3	0	0	1	1.0987647	-24.629363	110	1	1.12	0.95	111.6814	0.3189	0.0000	0.0000;
	321	1	18.732	6.09	0	0	1	1.1039557	-9.9668549	110	1	1.12	0.95	101.9241	0.5424	0.0000	0.0000;
	322	1	19.138	6.22	0	0	1	1.0883997	-10.942705	110	1	1.12	0.95	103.4777	1.0039	0.0000	0.0000;
	323	1	8.202	2.66	0	0	1	1.090503	-10.898082	110	1	1.12	0.95	103.4043	0.9139	0.0000	0.0000;
	324	1	15.189	3	0	0	1	1.0996087	-24.436772	110	1	1.12	0.95	111.3398	0.3025	0.0000	0.0000;
	325	1	20.251	3	0	0	1	1.0737136	-24.30529	110	1	1.12	0.95	112.7873	1.7339	0.0000	0.0000;
	326	1	17.821	5.14	0	0	1	1.0905322	-10.90023	110	1	1.12	0.95	103.4063	0.9125	0.0000	0.0000;
	327	1	9.619	2	0	0	1	1.0946826	-10.011184	110	1	1.12	0.95	102.5690	0.0690	0.0000	0.0000;
	328	1	4.557	1	0	0	1	1.0941208	-10.012186	110	1	1.12	0.95	102.6237	0.0094	0.0000	0.0000;