function mpc = case3120sp
%CASE3120SP  Power flow data for Polish system - summer 2008 morning peak.
%   Please see CASEFORMAT for details on the case file format.
%
%   This case represents the Polish 400, 220 and 110 kV networks during
%   summer 2008 morning peak conditions.
%
%   This data was graciously provided by, and is distributed with the
%   permission of, Roman Korab <roman.korab@polsl.pl>.

%   MATPOWER

%% MATPOWER Case Format : Version 2
mpc.version = '2';

%%-----  Power Flow Data  -----%%
%% system MVA base
mpc.baseMVA = 100;

%% bus data
%	bus_i	type	Pd	Qd	Gs	Bs	area	Vm	Va	baseKV	zone	Vmax	Vmin
mpc.bus = [
	1	1	0	0	0	0	1	1	0	220	1	1.11	0.95;
	2	1	0	0	0	0	1	1	0	220	1	1.11	0.95;
	3	1	0	0	0	0	1	1	0	220	1	1.11	0.95;
	4	1	0	0	0	0	1	1	0	220	1	1.11	0.95;
	5	1	0	0	0	0	1	1	0	220	1	1.11	0.95;
	6	1	0	0	0	0	1	1	0	220	1	1.11	0.95;
	7	1	0	0	0	0	1	1	0	220	1	1.11	0.95;
	8	1	0	0	0	0	1	1	0	220	1	1.11	0.95;
	9	1	0	0	0	0	1	1	0	220	1	1.11	0.95;
	10	1	0	0	0	0	1	1	0	220	1	1.11	0.95;
	11	1	0	0	0	0	1	1	0	400	1	1.05	0.95;
	12	1	0	0	0	0	1	1	0	400	1	1.05	0.95;
	13	1	0	0	0	0	1	1	0	400	1	1.05	0.95;
	14	1	0	0	0	0	1	1	0	220	1	1.11	0.95;
	15	1	0	0	0	0	1	1	0	220	1	1.11	0.95;
	16	1	0	0	0	0	1	1	0	220	1	1.11	0.95;
	17	1	0	0	0	0	1	1	0	220	1	1.11	0.95;
	18	1	0	0	0	0	1	1	0	400	1	1.05	0.95;
	19	1	0	0	0	0	1	1	0	400	1	1.05	0.95;
	20	1	0	0	0	0	1	1	0	400	1	1.05	0.95;
	21	1	0	0	0	0	1	1	0	400	1	1.05	0.95;
	22	2	10	20	0	0	1	1	0	220	1	1.11	0.95;
	23	2	10	20	0	0	1	1	0	220	1	1.11	0.95;
	24	1	0	0	0	0	1	1	0	220	1	1.11	0.95;
	25	1	0	0	0	0	1	1	0	220	1	1.11	0.95;
	26	1	0	0	0	0	1	1	0	220	1	1.11	0.95;
	27	1	0	0	0	0	1	1	0	220	1	1.11	0.95;
	28	1	0	0	0	0	1	1	0	220	1	1.11	0.95;
	29	1	0	0	0	0	1	1	0	220	1	1.11	0.95;
	30	1	0	0	0	0	1	1	0	220	1	1.11	0.95;
	31	1	0	0	0	0	1	1	0	220	1	1.11	0.95;
	32	1	0	0	0	0	1	1	0	400	1	1.05	0.95;
	33	1	0	0	0	0	1	1	0	400	1	1.05	0.95;
	34	1	0	0	0	0	1	1	0	400	1	1.05	0.95;
	35	2	32.16	52.07	0	0	1	1	0	220	1	1.11	0.95;
	36	2	46.36	92.07	0	0	1	1	0	220	1	1.11	0.95;
	37	3	60	120	0	0	1	1	0	400	1	1.05	0.95;
	38	2	60	120	0	0	1	1	0	400	1	1.05	0.95;
	39	1	0	0	0	0	1	1	0	220	1	1.11	0.95;
	40	1	0	0	0	0	1	1	0	220	1	1.11	0.95;
	41	1	0	0	0	0	1	1	0	400	1	1.05	0.95;
	42	1	0	0	0	0	1	1	0	400	1	1.05	0.95;
	43	1	0	0	0	0	1	1	0	220	1	1.11	0.95;
	44	1	0	0	0	0	1	1	0	400	1	1.05	0.95;
	45	1	0	0	0	0	1	1	0	220	1	1.11	0.95;
	46	1	0	0	0	0	1	1	0	220	1	1.11	0.95;
	47	1	0	0	0	0	1	1	0	220	2	1.11	0.95;
	48	1	0	0	0	0	1	1	0	220	2	1.11	0.95;
	49	1	0	0	0	0	1	1	0	220	2	1.11	0.95;
	50	1	0	0	0	0	1	1	0	220	2	1.11	0.95;
	51	1	0	0	0	0	1	1	0	220	2	1.11	0.95;
	52	1	3.97	1	0	0	1	1	0	220	2	1.11	0.95;
	53	1	0	0	0	0	1	1	0	220	2	1.11	0.95;
	54	1	0	0	0	0	1	1	0	400	2	1.05	0.95;
	55	2	13	30	0	0	1	1	0	220	2	1.11	0.95;
	56	2	39.35	90.07	0	0	1	1	0	220	2	1.11	0.95;
	57	2	26	60	0	0	1	1	0	220	2	1.11	0.95;
	58	2	26	50	0	0	1	1	0	400	2	1.05	0.95;
	59	2	26	50	0	0	1	1	0	400	2	1.05	0.95;
	60	1	0	0	0	0	1	1	0	220	2	1.11	0.95;
	61	1	0	0	0	0	1	1	0	400	2	1.05	0.95;
	62	1	0	0	0	0	1	1	0	400	2	1.05	0.95;
	63	1	0	0	0	0	1	1	0	400	2	1.05	0.95;
	64	1	0	0	0	0	1	1	0	220	2	1.11	0.95;
	65	1	0	0	0	0	1	1	0	220	2	1.11	0.95;
	66	1	0	0	0	0	1	1	0	400	2	1.05	0.95;
	67	1	0	0	0	0	1	1	0	400	2	1.05	0.95;
	68	2	13	30	0	0	1	1	0	220	2	1.11	0.95;
	69	2	26	60	0	0	1	1	0	220	2	1.11	0.95;
	70	2	0	2.25	0	0	1	1	0	400	2	1.05	0.95;
	71	2	26	60	0	0	1	1	0	400	2	1.05	0.95;
	72	1	0	0	0	0	1	1	0	220	2	1.11	0.95;
	73	1	0	0	0	0	1	1	0	220	2	1.11	0.95;
	74	1	0	0	0	0	1	1	0	220	2	1.11	0.95;
	75	1	0	0	0	0	1	1	0	220	2	1.11	0.95;
	76	1	0	0	0	0	1	1	0	220	2	1.11	0.95;
	77	1	0	0	0	0	1	1	0	220	2	1.11	0.95;
	78	1	0	0	0	0	1	1	0	400	2	1.05	0.95;
	79	1	0	0	0	0	1	1	0	400	2	1.05	0.95;
	80	1	0	0	0	0	1	1	0	220	2	1.11	0.95;
	81	1	0	0	0	0	1	1	0	220	2	1.11	0.95;
	82	1	0	0	0	0	1	1	0	220	2	1.11	0.95;
	83	1	0	0	0	0	1	1	0	220	3	1.11	0.95;
	84	1	6.41	2.01	0	0	1	1	0	220	3	1.11	0.95;
	85	1	13.89	5.02	0	0	1	1	0	220	3	1.11	0.95;
	86	1	0	0	0	0	1	1	0	220	3	1.11	0.95;
	87	1	0	0	0	0	1	1	0	220	3	1.11	0.95;
	88	1	0	0	0	0	1	1	0	220	3	1.11	0.95;
	89	1	0	0	0	0	1	1	0	220	3	1.11	0.95;
	90	1	0	0	0	0	1	1	0	220	3	1.11	0.95;
	91	1	0	0	0	0	1	1	0	220	3	1.11	0.95;
	92	2	28	70	0	0	1	1	0	220	3	1.11	0.95;
	93	2	28	68	0	0	1	1	0	220	3	1.11	0.95;
	94	1	2.78	1.91	0	0	1	1	0	220	3	1.11	0.95;
	95	1	0	0	0	0	1	1	0	220	3	1.11	0.95;
	96	2	32	142	0	0	1	1	0	400	3	1.05	0.95;
	97	1	0	0	0	0	1	1	0	400	3	1.05	0.95;
	98	1	0	0	0	0	1	1	0	220	3	1.11	0.95;
	99	1	0	0	0	0	1	1	0	220	3	1.11	0.95;
	100	1	0	0	0	0	1	1	0	220	3	1.11	0.95;
	101	1	38.8	-2.7	0	0	1	1	0	220	3	1.11	0.95;
	102	1	0	0	0	0	1	1	0	220	3	1.11	0.95;
	103	1	0	0	0	0	1	1	0	220	3	1.11	0.95;
	104	1	0	0	0	0	1	1	0	220	3	1.11	0.95;
	105	1	0	0	0	0	1	1	0	220	3	1.11	0.95;
	106	1	0	0	0	0	1	1	0	220	3	1.11	0.95;
	107	1	0	0	0	0	1	1	0	400	3	1.05	0.95;
	108	1	0	0	0	0	1	1	0	400	3	1.05	0.95;
	109	1	0	0	0	0	1	1	0	220	3	1.11	0.95;
	110	1	0	0	0	0	1	1	0	220	3	1.11	0.95;
	111	1	0	0	0	0	1	1	0	220	3	1.11	0.95;
	112	1	0	0	0	0	1	1	0	220	3	1.11	0.95;
	113	2	38.41	12.71	0	0	1	1	0	220	3	1.11	0.95;
	114	1	0	0	0	0	1	1	0	220	3	1.11	0.95;
	115	1	0	0	0	0	1	1	0	220	3	1.11	0.95;
	116	1	0	0	0	0	1	1	0	220	3	1.11	0.95;
	117	1	0	0	0	0	1	1	0	220	3	1.11	0.95;
	118	1	0	0	0	0	1	1	0	220	3	1.11	0.95;
	119	2	10	44	0	0	1	1	0	220	3	1.11	0.95;
	120	2	10	44	0	0	1	1	0	220	3	1.11	0.95;
	121	2	7	18	0	0	1	1	0	220	3	1.11	0.95;
	122	2	8	21	0	0	1	1	0	220	3	1.11	0.95;
	123	1	0	0	0	0	1	1	0	220	3	1.11	0.95;
	124	1	59.4	11.61	0	0	1	1	0	220	3	1.11	0.95;
	125	1	0	0	0	0	1	1	0	220	3	1.11	0.95;
	126	1	0	0	0	0	1	1	0	220	3	1.11	0.95;
	127	1	0	0	0	0	1	1	0	220	3	1.11	0.95;
	128	1	0	0	0	0	1	1	0	220	3	1.11	0.95;
	129	1	0	0	0	0	1	1	0	220	3	1.11	0.95;
	130	1	0	0	0	0	1	1	0	400	3	1.05	0.95;
	131	1	0	0	0	0	1	1	0	400	3	1.05	0.95;
	132	2	0	1.78	0	0	1	1	0	220	3	1.11	0.95;
	133	2	9	20	0	0	1	1	0	220	3	1.11	0.95;
	134	2	6	15	0	0	1	1	0	220	3	1.11	0.95;
	135	1	0	0	0	0	1	1	0	220	3	1.11	0.95;
	136	1	0	0	0	0	1	1	0	400	3	1.05	0.95;
	137	1	0	0	0	0	1	1	0	400	3	1.05	0.95;
	138	1	0	0	0	0	1	1	0	400	3	1.05	0.95;
	139	1	0	0	0	0	1	1	0	400	3	1.05	0.95;
	140	1	0	0	0	0	1	1	0	220	3	1.11	0.95;
	141	1	0	0	0	0	1	1	0	220	3	1.11	0.95;
	142	2	18.2	37.21	0	0	1	1	0	220	3	1.11	0.95;
	143	2	41.52	73.01	0	0	1	1	0	220	3	1.11	0.95;
	144	2	28	66	0	0	1	1	0	400	3	1.05	0.95;
	145	1	0	0	0	0	1	1	0	400	3	1.05	0.95;
	146	1	0	0	0	0	1	1	0	220	3	1.11	0.95;
	147	1	0	0	0	0	1	1	0	220	3	1.11	0.95;
	148	1	0	0	0	0	1	1	0	220	3	1.11	0.95;
	149	1	0	0	0	0	1	1	0	220	3	1.11	0.95;
	150	2	0	-0.79	0	0	1	1	0	220	3	1.11	0.95;
	151	2	0	-0.79	0	0	1	1	0	220	3	1.11	0.95;
	152	2	7.7	20	0	0	1	1	0	220	4	1.11	0.95;
	153	2	7.8	20	0	0	1	1	0	220	4	1.11	0.95;
	154	1	0	0	0	0	1	1	0	220	4	1.11	0.95;
	155	1	0	0	0	0	1	1	0	220	4	1.11	0.95;
	156	1	0	0	0	0	1	1	0	220	4	1.11	0.95;
	157	1	0	0	0	0	1	1	0	220	4	1.11	0.95;
	158	1	0	0	0	0	1	1	0	220	4	1.11	0.95;
	159	1	0	0	0	0	1	1	0	400	4	1.05	0.95;
	160	1	0	0	0	0	1	1	0	400	4	1.05	0.95;
	161	1	0	0	0	0	1	1	0	220	4	1.11	0.95;
	162	1	0	0	0	0	1	1	0	220	4	1.11	0.95;
	163	1	0	0	0	0	1	1	0	220	4	1.11	0.95;
	164	1	0	0	0	0	1	1	0	220	4	1.11	0.95;
	165	1	0	0	0	0	1	1	0	220	4	1.11	0.95;
	166	1	0	0	0	0	1	1	0	220	4	1.11	0.95;
	167	2	0	-13.01	0	0	1	1	0	220	4	1.11	0.95;
	168	1	0	0	0	0	1	1	0	220	4	1.11	0.95;
	169	2	12	30	0	0	1	1	0	220	4	1.11	0.95;
	170	2	19.91	36.57	0	0	1	1	0	220	4	1.11	0.95;
	171	2	12	30	0	0	1	1	0	400	4	1.05	0.95;
	172	2	12	30	0	0	1	1	0	400	4	1.05	0.95;
	173	1	0	0	0	0	1	1	0	220	4	1.11	0.95;
	174	1	0	0	0	0	1	1	0	220	4	1.11	0.95;
	175	1	0	0	0	0	1	1	0	220	4	1.11	0.95;
	176	1	0	0	0	0	1	1	0	220	4	1.11	0.95;
	177	2	30.5	64.2	0	0	1	1	0	220	4	1.11	0.95;
	178	2	58.9	96	0	0	1	1	0	220	4	1.11	0.95;
	179	1	0	0	0	0	1	1	0	220	4	1.11	0.95;
	180	2	26.5	64.2	0	0	1	1	0	400	4	1.05	0.95;
	181	1	0	0	0	0	1	1	0	400	4	1.05	0.95;
	182	1	0	0	0	0	1	1	0	220	4	1.11	0.95;
	183	1	0	0	0	0	1	1	0	220	4	1.11	0.95;
	184	1	0	0	0	0	1	1	0	400	4	1.05	0.95;
	185	1	0	0	0	0	1	1	0	400	4	1.05	0.95;
	186	1	0	0	0	0	1	1	0	400	4	1.05	0.95;
	187	1	0	0	0	0	1	1	0	400	4	1.05	0.95;
	188	2	12	30	0	0	1	1	0	220	4	1.11	0.95;
	189	2	23.8	60	0	0	1	1	0	220	4	1.11	0.95;
	190	2	38	64	0	0	1	1	0	400	4	1.05	0.95;
	191	1	0	0	0	0	1	1	0	220	4	1.11	0.95;
	192	1	0	0	0	0	1	1	0	220	4	1.11	0.95;
	193	1	0	0	0	0	1	1	0	220	4	1.11	0.95;
	194	1	0	0	0	0	1	1	0	220	4	1.11	0.95;
	195	1	0	0	0	0	1	1	0	220	4	1.11	0.95;
	196	1	0	0	0	0	1	1	0	220	4	1.11	0.95;
	197	1	0	0	0	0	1	1	0	400	4	1.05	0.95;
	198	1	0	0	0	0	1	1	0	220	4	1.11	0.95;
	199	1	0	0	0	0	1	1	0	220	4	1.11	0.95;
	200	1	0	0	0	0	1	1	0	220	4	1.11	0.95;
	201	1	0	0	0	0	1	1	0	220	4	1.11	0.95;
	202	1	0	0	0	0	1	1	0	220	4	1.11	0.95;
	203	1	0	0	0	0	1	1	0	220	4	1.11	0.95;
	204	2	0	-7.17	0	0	1	1	0	220	4	1.11	0.95;
	205	1	0	0	0	0	1	1	0	220	4	1.11	0.95;
	206	1	0	0	0	0	1	1	0	220	4	1.11	0.95;
	207	1	0	0	0	0	1	1	0	220	5	1.11	0.95;
	208	1	0	0	0	0	1	1	0	220	5	1.11	0.95;
	209	1	0	0	0	0	1	1	0	400	5	1.05	0.95;
	210	1	0	0	0	0	1	1	0	400	5	1.05	0.95;
	211	1	0	0	0	0	1	1	0	400	5	1.05	0.95;
	212	1	0	0	0	0	1	1	0	400	5	1.05	0.95;
	213	1	0	0	0	0	1	1	0	400	5	1.05	0.95;
	214	1	0	0	0	0	1	1	0	220	5	1.11	0.95;
	215	1	0	0	0	0	1	1	0	220	5	1.11	0.95;
	216	1	0	0	0	0	1	1	0	220	5	1.11	0.95;
	217	1	0	0	0	0	1	1	0	220	5	1.11	0.95;
	218	1	0	0	0	0	1	1	0	400	5	1.05	0.95;
	219	1	0	0	0	0	1	1	0	400	5	1.05	0.95;
	220	1	0	0	0	0	1	1	0	400	5	1.05	0.95;
	221	1	0	0	0	0	1	1	0	220	5	1.11	0.95;
	222	1	0	0	0	0	1	1	0	220	5	1.11	0.95;
	223	1	0	0	0	0	1	1	0	220	5	1.11	0.95;
	224	1	0	0	0	0	1	1	0	220	5	1.11	0.95;
	225	1	0	0	0	0	1	1	0	400	5	1.05	0.95;
	226	1	0	0	0	0	1	1	0	400	5	1.05	0.95;
	227	1	0	0	0	0	1	1	0	400	5	1.05	0.95;
	228	1	0	0	0	0	1	1	0	220	5	1.11	0.95;
	229	1	0	0	0	0	1	1	0	220	5	1.11	0.95;
	230	1	0	0	0	70	1	1	0	400	5	1.05	0.95;
	231	1	0	0	0	0	1	1	0	400	5	1.05	0.95;
	232	1	0	0	0	0	1	1	0	220	5	1.11	0.95;
	233	1	0	0	0	0	1	1	0	220	5	1.11	0.95;
	234	1	0	0	0	0	1	1	0	220	5	1.11	0.95;
	235	1	0	0	0	0	1	1	0	220	5	1.11	0.95;
	236	2	11	40	0	0	1	1	0	400	5	1.05	0.95;
	237	2	5	10	0	0	1	1	0	400	5	1.05	0.95;
	238	1	0	0	0	0	1	1	0	220	5	1.11	0.95;
	239	1	0	0	0	0	1	1	0	220	5	1.11	0.95;
	240	2	8	20	0	0	0	1	0	220	0	1.11	0.95;
	241	1	9.86	2	0	0	1	1	0	110	1	1.12	0.95;
	242	1	6.41	0	0	0	1	1	0	110	1	1.12	0.95;
	243	1	9.37	0.6	0	0	1	1	0	110	1	1.12	0.95;
	244	1	7.25	4	0	0	1	1	0	110	1	1.12	0.95;
	245	1	0	0	0	0	1	1	0	110	1	1.12	0.95;
	246	1	2.18	2.4	0	0	1	1	0	110	1	1.12	0.95;
	247	1	5.12	4.91	0	0	1	1	0	110	1	1.12	0.95;
	248	1	3.65	0.9	0	0	1	1	0	110	1	1.12	0.95;
	249	1	3.85	1	0	0	1	1	0	110	1	1.12	0.95;
	250	2	4.44	-1.76	0	0	1	1	0	110	1	1.12	0.95;
	251	2	2.5	0	0	0	1	1	0	110	1	1.12	0.95;
	252	1	17.76	1.2	0	0	1	1	0	110	1	1.12	0.95;
	253	1	12.33	2.1	0	0	1	1	0	110	1	1.12	0.95;
	254	1	7.41	0.99	0	0	1	1	0	110	1	1.12	0.95;
	255	1	4.93	0	0	0	1	1	0	110	1	1.12	0.95;
	256	1	4.93	0	0	0	1	1	0	110	1	1.12	0.95;
	257	1	14.8	2.5	0	0	1	1	0	110	1	1.12	0.95;
	258	1	5.42	1.1	0	0	1	1	0	110	1	1.12	0.95;
	259	1	4.44	1	0	0	1	1	0	110	1	1.12	0.95;
	260	1	2.96	0.5	0	0	1	1	0	110	1	1.12	0.95;
	261	1	5.42	0.6	0	0	1	1	0	110	1	1.12	0.95;
	262	1	0	0	0	0	1	1	0	110	1	1.12	0.95;
	263	1	2.96	0.9	0	0	1	1	0	110	1	1.12	0.95;
	264	1	5.33	1.5	0	0	1	1	0	110	1	1.12	0.95;
	265	1	3.45	0.7	0	0	1	1	0	110	1	1.12	0.95;
	266	1	3.45	0.7	0	0	1	1	0	110	1	1.12	0.95;
	267	2	4.34	1.8	0	0	1	1	0	110	1	1.12	0.95;
	268	2	4.34	1.8	0	0	1	1	0	110	1	1.12	0.95;
	269	1	6.25	2	0	0	1	1	0	110	1	1.12	0.95;
	270	1	6.69	3	0	0	1	1	0	110	1	1.12	0.95;
	271	1	0.49	0.2	0	0	1	1	0	110	1	1.12	0.95;
	272	1	0.79	0.2	0	0	1	1	0	110	1	1.12	0.95;
	273	1	1.18	-0.9	0	0	1	1	0	110	1	1.12	0.95;
	274	1	4.74	0.5	0	0	1	1	0	110	1	1.12	0.95;
	275	1	0	0	0	0	1	1	0	110	1	1.12	0.95;
	276	1	3.16	0.1	0	0	1	1	0	110	1	1.12	0.95;
	277	1	7.4	1.3	0	0	1	1	0	110	1	1.12	0.95;
	278	1	10.36	1.3	0	0	1	1	0	110	1	1.12	0.95;
	279	1	2.27	1.11	0	0	1	1	0	110	1	1.12	0.95;
	280	1	5.33	1.6	0	0	1	1	0	110	1	1.12	0.95;
	281	1	2.07	0.1	0	0	1	1	0	110	1	1.12	0.95;
	282	2	1.87	0.09	0	0	1	1	0	110	1	1.12	0.95;
	283	2	1.87	0.31	0	0	1	1	0	110	1	1.12	0.95;
	284	1	8.58	3	0	0	1	1	0	110	1	1.12	0.95;
	285	1	1.58	0.4	0	0	1	1	0	110	1	1.12	0.95;
	286	1	4.44	1.1	0	0	1	1	0	110	1	1.12	0.95;
	287	1	5.33	0.5	0	0	1	1	0	110	1	1.12	0.95;
	288	1	4.64	0.4	0	0	1	1	0	110	1	1.12	0.95;
	289	1	13.89	7.76	0	0	1	1	0	110	1	1.12	0.95;
	290	1	19.52	11.23	0	0	1	1	0	110	1	1.12	0.95;
	291	1	6.81	0.5	0	0	1	1	0	110	1	1.12	0.95;
	292	1	9.57	3.84	0	0	1	1	0	110	1	1.12	0.95;
	293	1	0	0	0	0	1	1	0	110	1	1.12	0.95;
	294	1	8.38	0.8	0	0	1	1	0	110	1	1.12	0.95;
	295	1	0	0	0	0	1	1	0	110	1	1.12	0.95;
	296	1	3.95	0.4	0	0	1	1	0	110	1	1.12	0.95;
	297	1	5.42	0.6	0	0	1	1	0	110	1	1.12	0.95;
	298	1	2.47	0.3	0	0	1	1	0	110	1	1.12	0.95;
	299	1	0	0	0	0	1	1	0	110	1	1.12	0.95;
	300	1	0.49	0.2	0	0	1	1	0	110	1	1.12	0.95;
	301	2	0.17	0.3	0	0	1	1	0	110	1	1.12	0.95;
	302	2	0.06	0.1	0	0	1	1	0	110	1	1.12	0.95;
	303	1	5.92	0.7	0	0	1	1	0	110	1	1.12	0.95;
	304	1	0.3	0.1	0	0	1	1	0	110	1	1.12	0.95;
	305	1	0.4	0.1	0	0	1	1	0	110	1	1.12	0.95;
	306	1	10.06	7.01	0	0	1	1	0	110	1	1.12	0.95;
	307	1	0.49	0.2	0	0	1	1	0	110	1	1.12	0.95;
	308	1	8.09	1.3	0	0	1	1	0	110	1	1.12	0.95;
	309	1	4.74	0.4	0	0	1	1	0	110	1	1.12	0.95;
	310	1	4.74	1.74	0	0	1	1	0	110	1	1.12	0.95;
	311	1	2.86	-1.4	0	0	1	1	0	110	1	1.12	0.95;
	312	1	2.86	-1.4	0	0	1	1	0	110	1	1.12	0.95;
	313	1	3.08	2	0	0	1	1	0	110	1	1.12	0.95;
	314	1	0	0	0	0	1	1	0	110	1	1.12	0.95;
	315	1	0	0	0	0	1	1	0	110	1	1.12	0.95;
	316	2	20	40	0	0	1	1	0	24	1	1.12	0.95;
	317	1	4.93	1	0	0	1	1	0	110	1	1.12	0.95;
	318	1	2.96	0.7	0	0	1	1	0	110	1	1.12	0.95;
	319	1	3.95	1	0	0	1	1	0	110	1	1.12	0.95;
	320	1	1.48	0.2	0	0	1	1	0	110	1	1.12	0.95;
	321	1	0	0	0	45	1	1	0	16	1	1.12	0.95;
	322	2	0	-3.42	0	0	1	1	0	110	1	1.12	0.95;
	323	1	5.42	1	0	0	1	1	0	110	1	1.12	0.95;
	324	1	6.41	1	0	0	1	1	0	110	1	1.12	0.95;
	325	1	1.97	0	0	0	1	1	0	110	1	1.12	0.95;
	326	1	4.74	0.7	0	0	1	1	0	110	1	1.12	0.95;
	327	1	0	0	0	0	1	1	0	110	1	1.12	0.95;
	328	1	9.99	5.11	0	0	1	1	0	110	1	1.12	0.95;
	329	1	7.68	4.5	0	0	1	1	0	110	1	1.12	0.95;
	330	1	18.57	4	0	0	1	1	0	110	1	1.12	0.95;
	331	1	17.67	7.31	0	0	1	1	0	110	1	1.12	0.95;
	332	1	5.92	1	0	0	1	1	0	110	1	1.12	0.95;
	333	1	6.91	1	0	0	1	1	0	110	1	1.12	0.95;
	334	1	36.5	2	0	0	1	1	0	110	1	1.12	0.95;
	335	1	3.95	0.5	0	0	1	1	0	110	1	1.12	0.95;
	336	1	3.75	0.7	0	0	1	1	0	110	1	1.12	0.95;
	337	1	2.07	0.4	0	0	1	1	0	110	1	1.12	0.95;
	338	1	9.67	3.56	0	0	1	1	0	110	1	1.12	0.95;
	339	1	0	0	0	0	1	1	0	110	1	1.12	0.95;
	340	1	6.41	0.6	0	0	1	1	0	110	1	1.12	0.95;
	341	1	4.99	1.2	0	0	1	1	0	110	1	1.12	0.95;
	342	1	6.79	2.5	0	0	1	1	0	110	1	1.12	0.95;
	343	1	1.97	1.3	0	0	1	1	0	110	1	1.12	0.95;
	344	1	27.67	20.42	0	0	1	1	0	110	1	1.12	0.95;
	345	1	20.43	20.62	0	0	1	1	0	110	1	1.12	0.95;
	346	1	36.5	12.01	0	0	1	1	0	110	1	1.12	0.95;
	347	1	4.56	3	0	0	1	1	0	110	1	1.12	0.95;
	348	1	9.96	0.9	0	0	1	1	0	110	1	1.12	0.95;
	349	1	0	0	0	0	1	1	0	110	1	1.12	0.95;
	350	1	7	2	0	0	1	1	0	110	1	1.12	0.95;
	351	1	0	0	0	0	1	1	0	110	1	1.12	0.95;
	352	1	13.32	1.4	0	0	1	1	0	110	1	1.12	0.95;
	353	1	2.47	0	0	0	1	1	0	110	1	1.12	0.95;
	354	1	1.97	0	0	0	1	1	0	110	1	1.12	0.95;
	355	1	5.92	1.56	0	0	1	1	0	110	1	1.12	0.95;
	356	1	5.92	1.56	0	0	1	1	0	110	1	1.12	0.95;
	357	1	0	0	0	0	1	1	0	110	1	1.12	0.95;
	358	1	0	0	0	0	1	1	0	110	1	1.12	0.95;
	359	1	0.18	0.05	0	0	1	1	0	110	1	1.12	0.95;
	360	1	0	0	0	0	1	1	0	110	1	1.12	0.95;
	361	1	15.19	7.91	0	0	1	1	0	110	1	1.12	0.95;
	362	1	0	0	0	0	1	1	0	110	1	1.12	0.95;
	363	1	3.65	0.8	0	0	1	1	0	110	1	1.12	0.95;
	364	1	3.65	0.8	0	0	1	1	0	110	1	1.12	0.95;
	365	1	1.97	0.4	0	0	1	1	0	110	1	1.12	0.95;
	366	1	6.41	1	0	0	1	1	0	110	1	1.12	0.95;
	367	1	6.69	2.2	0	0	1	1	0	110	1	1.12	0.95;
	368	1	5.53	1.8	0	0	1	1	0	110	1	1.12	0.95;
	369	2	0.15	0.67	0	0	1	1	0	110	1	1.12	0.95;
	370	1	18.52	12.25	0	0	1	1	0	110	1	1.12	0.95;
	371	1	14.09	6.13	0	0	1	1	0	110	1	1.12	0.95;
	372	1	1.97	0.4	0	0	1	1	0	110	1	1.12	0.95;
	373	1	0	0	0	0	1	1	0	110	1	1.12	0.95;
	374	1	12.04	4.84	0	0	1	1	0	110	1	1.12	0.95;
	375	1	0	0	0	0	1	1	0	110	1	1.12	0.95;
	376	1	2.47	0.8	0	0	1	1	0	110	1	1.12	0.95;
	377	1	5.13	2.2	0	0	1	1	0	110	1	1.12	0.95;
	378	1	5.62	2.4	0	0	1	1	0	110	1	1.12	0.95;
	379	1	0	0	0	0	1	1	0	110	1	1.12	0.95;
	380	1	7.89	1.3	0	0	1	1	0	110	1	1.12	0.95;
	381	1	2.96	0	0	0	1	1	0	110	1	1.12	0.95;
	382	1	3.28	2	0	0	1	1	0	110	1	1.12	0.95;
	383	1	3.13	2	0	0	1	1	0	110	1	1.12	0.95;
	384	1	2.86	0.2	0	0	1	1	0	110	1	1.12	0.95;
	385	1	8.53	3.3	0	0	1	1	0	110	1	1.12	0.95;
	386	1	9.79	4.71	0	0	1	1	0	110	1	1.12	0.95;
	387	1	8.2	1.8	0	0	1	1	0	110	1	1.12	0.95;
	388	1	5.62	2.07	0	0	1	1	0	110	1	1.12	0.95;
	389	1	0	0	0	0	1	1	0	110	1	1.12	0.95;
	390	1	3.74	0.85	0	0	1	1	0	110	1	1.12	0.95;
	391	1	5.33	0.7	0	0	1	1	0	110	1	1.12	0.95;
	392	1	11.44	0.7	0	0	1	1	0	110	1	1.12	0.95;
	393	1	2.07	0.7	0	0	1	1	0	110	1	1.12	0.95;
	394	1	2.07	0.7	0	0	1	1	0	110	1	1.12	0.95;
	395	1	9.67	3.88	0	0	1	1	0	110	1	1.12	0.95;
	396	1	0	0	0	0	1	1	0	110	1	1.12	0.95;
	397	1	9.57	3.52	0	0	1	1	0	110	1	1.12	0.95;
	398	2	4.93	-0.66	0	0	1	1	0	110	1	1.12	0.95;
	399	1	5.42	0.5	0	0	1	1	0	110	1	1.12	0.95;
	400	1	0	0	0	0	1	1	0	110	1	1.12	0.95;
	401	1	4.54	1.9	0	0	1	1	0	110	1	1.12	0.95;
	402	2	14.99	6.03	0	0	1	1	0	110	1	1.12	0.95;
	403	1	0	0	0	0	1	1	0	110	1	1.12	0.95;
	404	1	10.95	4.03	0	0	1	1	0	110	1	1.12	0.95;
	405	1	0	0	0	0	1	1	0	110	1	1.12	0.95;
	406	1	14.21	5.24	0	0	1	1	0	110	1	1.12	0.95;
	407	1	17.76	6.54	0	0	1	1	0	110	1	1.12	0.95;
	408	1	5.66	1.52	0	0	1	1	0	110	1	1.12	0.95;
	409	2	22.7	9.13	0	0	1	1	0	110	1	1.12	0.95;
	410	1	0	0	0	0	1	1	0	110	1	1.12	0.95;
	411	2	14.44	10.73	0	0	1	1	0	110	1	1.12	0.95;
	412	2	14.2	0.68	0	0	1	1	0	110	1	1.12	0.95;
	413	1	0	0	0	0	1	1	0	110	1	1.12	0.95;
	414	2	1.1	-4.85	0	0	1	1	0	110	1	1.12	0.95;
	415	2	12.46	9.56	0	0	1	1	0	110	1	1.12	0.95;
	416	1	11.34	0.7	0	0	1	1	0	110	1	1.12	0.95;
	417	1	0	0	0	0	1	1	0	110	1	1.12	0.95;
	418	1	1.97	0.2	0	0	1	1	0	110	1	1.12	0.95;
	419	1	2.82	0	0	0	1	1	0	110	1	1.12	0.95;
	420	1	4.03	1	0	0	1	1	0	110	1	1.12	0.95;
	421	1	2.28	0.4	0	0	1	1	0	110	1	1.12	0.95;
	422	1	10.41	2	0	0	1	1	0	110	1	1.12	0.95;
	423	1	0	0	0	0	1	1	0	110	1	1.12	0.95;
	424	1	7.79	2.5	0	0	1	1	0	110	1	1.12	0.95;
	425	1	5.97	1.7	0	0	1	1	0	110	1	1.12	0.95;
	426	1	9.67	3.56	0	0	1	1	0	110	1	1.12	0.95;
	427	1	0	0	0	0	1	1	0	110	1	1.12	0.95;
	428	2	17.07	6.29	0	0	1	1	0	110	1	1.12	0.95;
	429	1	0	0	0	0	1	1	0	110	1	1.12	0.95;
	430	1	5.42	1	0	0	1	1	0	110	1	1.12	0.95;
	431	1	4.93	1	0	0	1	1	0	110	1	1.12	0.95;
	432	1	23.18	9.32	0	0	1	1	0	110	1	1.12	0.95;
	433	1	0	0	0	0	1	1	0	110	1	1.12	0.95;
	434	1	7.45	2.74	0	0	1	1	0	110	1	1.12	0.95;
	435	1	7.45	2.74	0	0	1	1	0	110	1	1.12	0.95;
	436	1	5.92	0.7	0	0	1	1	0	110	1	1.12	0.95;
	437	1	2.96	0.2	0	0	1	1	0	110	1	1.12	0.95;
	438	1	8.09	2	0	0	1	1	0	110	1	1.12	0.95;
	439	1	7.4	1.9	0	0	1	1	0	110	1	1.12	0.95;
	440	1	10.46	3.85	0	0	1	1	0	110	1	1.12	0.95;
	441	1	9.07	2.4	0	0	1	1	0	110	1	1.12	0.95;
	442	1	5.42	1	0	0	1	1	0	110	1	1.12	0.95;
	443	1	25.35	9.34	0	0	1	1	0	110	1	1.12	0.95;
	444	1	0	0	0	0	1	1	0	110	1	1.12	0.95;
	445	1	10.97	0	0	0	1	1	0	110	1	1.12	0.95;
	446	1	9.61	0	0	0	1	1	0	110	1	1.12	0.95;
	447	1	2.96	0.7	0	0	1	1	0	110	1	1.12	0.95;
	448	1	7.89	1.2	0	0	1	1	0	110	1	1.12	0.95;
	449	1	0	0	0	0	1	1	0	110	1	1.12	0.95;
	450	1	8.38	1.2	0	0	1	1	0	110	1	1.12	0.95;
	451	1	12.43	4.57	0	0	1	1	0	110	1	1.12	0.95;
	452	1	0	0	0	0	1	1	0	110	1	1.12	0.95;
	453	1	8.5	4	0	0	1	1	0	110	1	1.12	0.95;
	454	1	0	0	0	0	1	1	0	110	1	1.12	0.95;
	455	1	9.86	2.6	0	0	1	1	0	110	1	1.12	0.95;
	456	1	9.86	2.6	0	0	1	1	0	110	1	1.12	0.95;
	457	1	4.93	0.8	0	0	1	1	0	110	1	1.12	0.95;
	458	1	0	0	0	0	1	1	0	110	1	1.12	0.95;
	459	1	0	0	0	0	1	1	0	110	1	1.12	0.95;
	460	1	0	0	0	0	1	1	0	110	1	1.12	0.95;
	461	1	0	0	0	45	1	1	0	16	1	1.12	0.95;
	462	1	0	0	0	0	1	1	0	32	1	1.12	0.95;
	463	1	18.17	7.41	0	0	1	1	0	110	1	1.12	0.95;
	464	1	14.04	5.41	0	0	1	1	0	110	1	1.12	0.95;
	465	1	5.72	0.9	0	0	1	1	0	110	1	1.12	0.95;
	466	2	7.68	0.38	0	0	1	1	0	110	1	1.12	0.95;
	467	1	14.8	1.4	0	0	1	1	0	110	1	1.12	0.95;
	468	1	0	0	0	0	1	1	0	110	1	1.12	0.95;
	469	1	11.94	4.4	0	0	1	1	0	110	1	1.12	0.95;
	470	1	0	0	0	0	1	1	0	110	1	1.12	0.95;
	471	1	9.37	2.38	0	0	1	1	0	110	1	1.12	0.95;
	472	1	0	0	0	0	1	1	0	110	1	1.12	0.95;
	473	1	5.92	1	0	0	1	1	0	110	1	1.12	0.95;
	474	1	0.99	0.3	0	0	1	1	0	110	1	1.12	0.95;
	475	1	0	0	0	0	1	1	0	110	1	1.12	0.95;
	476	1	0	0	0	0	1	1	0	110	1	1.12	0.95;
	477	1	0	0	0	15	1	1	0	16	1	1.12	0.95;
	478	1	0	0	0	15	1	1	0	16	1	1.12	0.95;
	479	1	2.46	0.3	0	0	1	1	0	110	1	1.12	0.95;
	480	1	4.94	2	0	0	1	1	0	110	1	1.12	0.95;
	481	1	5.92	2.1	0	0	1	1	0	110	1	1.12	0.95;
	482	1	5.92	2.1	0	0	1	1	0	110	1	1.12	0.95;
	483	1	5.72	1.6	0	0	1	1	0	110	1	1.12	0.95;
	484	1	3.85	1.4	0	0	1	1	0	110	1	1.12	0.95;
	485	1	0	0	0	0	1	1	0	110	1	1.12	0.95;
	486	1	0	0	0	0	1	1	0	110	1	1.12	0.95;
	487	1	0	0	0	0	1	1	0	110	1	1.12	0.95;
	488	1	0	0	0	0	1	1	0	16	1	1.12	0.95;
	489	1	2.56	0.6	0	0	1	1	0	110	1	1.12	0.95;
	490	1	2.86	1.5	0	0	1	1	0	110	1	1.12	0.95;
	491	1	7.57	2.2	0	0	1	1	0	110	1	1.12	0.95;
	492	2	44.88	17.02	0	0	1	1	0	110	1	1.12	0.95;
	493	2	53.77	21.02	0	0	1	1	0	110	1	1.12	0.95;
	494	2	69.15	28.02	0	0	1	1	0	110	1	1.12	0.95;
	495	2	77.06	34.03	0	0	1	1	0	110	1	1.12	0.95;
	496	1	0	0	0	0	1	1	0	110	1	1.12	0.95;
	497	1	0	0	0	0	1	1	0	110	1	1.12	0.95;
	498	1	9.37	0.2	0	0	1	1	0	110	1	1.12	0.95;
	499	1	0	0	0	0	1	1	0	110	1	1.12	0.95;
	500	1	12.92	1.2	0	0	1	1	0	110	1	1.12	0.95;
	501	1	3.35	0.2	0	0	1	1	0	110	1	1.12	0.95;
	502	1	3.45	1	0	0	1	1	0	110	1	1.12	0.95;
	503	1	0	0	0	0	1	1	0	110	1	1.12	0.95;
	504	1	6.27	3	0	0	1	1	0	110	1	1.12	0.95;
	505	1	9.22	3	0	0	1	1	0	110	1	1.12	0.95;
	506	1	6.02	1.2	0	0	1	1	0	110	1	1.12	0.95;
	507	1	3.95	1.1	0	0	1	1	0	110	1	1.12	0.95;
	508	1	11.84	1.5	0	0	1	1	0	110	1	1.12	0.95;
	509	1	7.2	0.2	0	0	1	1	0	110	1	1.12	0.95;
	510	1	8.68	1	0	0	1	1	0	110	1	1.12	0.95;
	511	1	6.31	1.2	0	0	1	1	0	110	1	1.12	0.95;
	512	1	6.91	1	0	0	1	1	0	110	1	1.12	0.95;
	513	1	13.5	4.61	0	0	1	1	0	110	1	1.12	0.95;
	514	1	11.48	3.8	0	0	1	1	0	110	1	1.12	0.95;
	515	1	8.4	3	0	0	1	1	0	110	1	1.12	0.95;
	516	1	11.02	4	0	0	1	1	0	110	1	1.12	0.95;
	517	2	24.19	15.32	0	0	1	1	0	110	1	1.12	0.95;
	518	2	14.55	0	0	0	1	1	0	110	1	1.12	0.95;
	519	1	1.48	0.2	0	0	1	1	0	110	1	1.12	0.95;
	520	1	4.2	1.5	0	0	1	1	0	110	1	1.12	0.95;
	521	1	8.5	3.5	0	0	1	1	0	110	1	1.12	0.95;
	522	2	16.87	6.06	0	0	1	1	0	110	1	1.12	0.95;
	523	1	0	0	0	0	1	1	0	110	1	1.12	0.95;
	524	1	14.66	7.01	0	0	1	1	0	110	1	1.12	0.95;
	525	1	12.63	5.85	0	0	1	1	0	110	1	1.12	0.95;
	526	1	0	0	0	0	1	1	0	110	1	1.12	0.95;
	527	1	0	0	0	0	1	1	0	110	1	1.12	0.95;
	528	1	0	0	0	0	1	1	0	110	1	1.12	0.95;
	529	1	3.75	0.5	0	0	1	1	0	110	1	1.12	0.95;
	530	1	0	0	0	0	1	1	0	110	1	1.12	0.95;
	531	1	1.8	0	0	0	1	1	0	110	1	1.12	0.95;
	532	1	6.61	1.3	0	0	1	1	0	110	1	1.12	0.95;
	533	1	5.52	0.6	0	0	1	1	0	110	1	1.12	0.95;
	534	1	4.14	0.6	0	0	1	1	0	110	1	1.12	0.95;
	535	1	0	0	0	0	1	1	0	110	1	1.12	0.95;
	536	1	0	0	0	0	1	1	0	110	1	1.12	0.95;
	537	1	2.96	0.84	0	0	1	1	0	110	1	1.12	0.95;
	538	1	2.96	0.84	0	0	1	1	0	110	1	1.12	0.95;
	539	1	3.16	0.3	0	0	1	1	0	110	1	1.12	0.95;
	540	1	12.33	4	0	0	1	1	0	110	1	1.12	0.95;
	541	1	22	6.01	0	0	1	1	0	110	1	1.12	0.95;
	542	2	5.62	1.2	0	0	1	1	0	110	1	1.12	0.95;
	543	1	5.62	1.3	0	0	1	1	0	110	1	1.12	0.95;
	544	1	10.16	1	0	0	1	1	0	110	1	1.12	0.95;
	545	1	3.55	0.3	0	0	1	1	0	110	1	1.12	0.95;
	546	1	2.37	0.6	0	0	1	1	0	110	1	1.12	0.95;
	547	1	6.21	1.2	0	0	1	1	0	110	1	1.12	0.95;
	548	1	8.68	1.6	0	0	1	1	0	110	1	1.12	0.95;
	549	1	6.66	2	0	0	1	1	0	110	1	1.12	0.95;
	550	1	6.4	1	0	0	1	1	0	110	1	1.12	0.95;
	551	1	3.95	0.2	0	0	1	1	0	110	1	1.12	0.95;
	552	1	0	0	0	0	1	1	0	110	1	1.12	0.95;
	553	1	2.47	0.2	0	0	1	1	0	110	1	1.12	0.95;
	554	1	0	0	0	0	1	1	0	110	1	1.12	0.95;
	555	1	0	0	0	0	1	1	0	110	1	1.12	0.95;
	556	1	0	0	0	0	1	1	0	32	1	1.12	0.95;
	557	1	6.91	2.1	0	0	1	1	0	110	1	1.12	0.95;
	558	1	6.61	1.1	0	0	1	1	0	110	1	1.12	0.95;
	559	1	0.69	0.5	0	0	1	1	0	110	1	1.12	0.95;
	560	1	4.59	1.9	0	0	1	1	0	110	1	1.12	0.95;
	561	1	8.19	1.8	0	0	1	1	0	110	1	1.12	0.95;
	562	1	0	0	0	0	1	1	0	110	1	1.12	0.95;
	563	1	12.23	0.9	0	0	1	1	0	110	1	1.12	0.95;
	564	1	8.48	1.6	0	0	1	1	0	110	1	1.12	0.95;
	565	1	6.02	2.7	0	0	1	1	0	110	1	1.12	0.95;
	566	1	8.71	1	0	0	1	1	0	110	1	1.12	0.95;
	567	1	17.76	5.41	0	0	1	1	0	110	1	1.12	0.95;
	568	1	17.76	5.41	0	0	1	1	0	110	1	1.12	0.95;
	569	1	8.48	4.7	0	0	1	1	0	110	1	1.12	0.95;
	570	1	0	0	0	0	1	1	0	110	1	1.12	0.95;
	571	2	12.3	-2.23	0	0	1	1	0	110	1	1.12	0.95;
	572	1	0	0	0	0	1	1	0	110	1	1.12	0.95;
	573	1	5.38	1.8	0	0	1	1	0	110	1	1.12	0.95;
	574	1	5.38	1.7	0	0	1	1	0	110	1	1.12	0.95;
	575	1	9.27	2	0	0	1	1	0	110	1	1.12	0.95;
	576	1	0	0	0	0	1	1	0	110	1	1.12	0.95;
	577	1	7.33	2.53	0	0	1	1	0	110	1	1.12	0.95;
	578	1	7.33	2.62	0	0	1	1	0	110	1	1.12	0.95;
	579	1	9.64	4	0	0	1	1	0	110	1	1.12	0.95;
	580	2	8.98	3.4	0	0	1	1	0	110	1	1.12	0.95;
	581	1	0	0	0	0	1	1	0	110	1	1.12	0.95;
	582	1	10.95	2.9	0	0	1	1	0	110	1	1.12	0.95;
	583	1	7.89	0.2	0	0	1	1	0	110	1	1.12	0.95;
	584	1	0	0	0	0	1	1	0	110	1	1.12	0.95;
	585	1	5.42	1.8	0	0	1	1	0	110	1	1.12	0.95;
	586	1	5.23	2.1	0	0	1	1	0	110	1	1.12	0.95;
	587	2	8.99	2.2	0	0	1	1	0	110	1	1.12	0.95;
	588	1	7	2.1	0	0	1	1	0	110	1	1.12	0.95;
	589	1	5.13	1.89	0	0	1	1	0	110	1	1.12	0.95;
	590	1	0	0	0	0	1	1	0	110	1	1.12	0.95;
	591	1	6.4	3	0	0	1	1	0	110	1	1.12	0.95;
	592	1	4.75	1.8	0	0	1	1	0	110	1	1.12	0.95;
	593	1	9.67	3.4	0	0	1	1	0	110	1	1.12	0.95;
	594	1	8.09	3.1	0	0	1	1	0	110	1	1.12	0.95;
	595	1	0	0	0	0	1	1	0	110	1	1.12	0.95;
	596	1	7.89	0	0	0	1	1	0	110	1	1.12	0.95;
	597	1	3.16	0.8	0	0	1	1	0	110	1	1.12	0.95;
	598	1	4.54	1.2	0	0	1	1	0	110	1	1.12	0.95;
	599	2	17.76	6.51	0	0	1	1	0	110	1	1.12	0.95;
	600	1	5.62	1.2	0	0	1	1	0	110	1	1.12	0.95;
	601	1	6.41	2.57	0	0	1	1	0	110	1	1.12	0.95;
	602	1	14.5	5.35	0	0	1	1	0	110	1	1.12	0.95;
	603	1	0	0	0	0	1	1	0	110	1	1.12	0.95;
	604	1	1.09	-0.9	0	0	1	1	0	110	1	1.12	0.95;
	605	1	1.09	-0.9	0	0	1	1	0	110	1	1.12	0.95;
	606	1	1.78	0.6	0	0	1	1	0	110	1	1.12	0.95;
	607	1	1.18	0.8	0	0	1	1	0	110	1	1.12	0.95;
	608	1	0	0	0	0	1	1	0	110	1	1.12	0.95;
	609	1	9.27	1.5	0	0	1	1	0	110	1	1.12	0.95;
	610	1	13.25	5.37	0	0	1	1	0	110	1	1.12	0.95;
	611	1	0	0	0	0	1	1	0	110	1	1.12	0.95;
	612	1	3.21	0.84	0	0	1	1	0	110	1	1.12	0.95;
	613	1	4.49	3.8	0	0	1	1	0	110	1	1.12	0.95;
	614	1	9.84	3.6	0	0	1	1	0	110	1	1.12	0.95;
	615	1	7.84	3.2	0	0	1	1	0	110	1	1.12	0.95;
	616	1	3.95	0	0	0	1	1	0	110	1	1.12	0.95;
	617	1	4.3	1.4	0	0	1	1	0	110	1	1.12	0.95;
	618	1	0	0	0	0	1	1	0	110	1	1.12	0.95;
	619	1	32.03	8.01	0	0	1	1	0	110	1	1.12	0.95;
	620	1	1.48	-1	0	0	1	1	0	110	1	1.12	0.95;
	621	1	12.53	0.4	0	0	1	1	0	110	1	1.12	0.95;
	622	1	7.79	0.1	0	0	1	1	0	110	1	1.12	0.95;
	623	1	6.41	0.5	0	0	1	1	0	110	1	1.12	0.95;
	624	1	6.12	0.1	0	0	1	1	0	110	1	1.12	0.95;
	625	1	13.83	4.7	0	0	1	1	0	110	1	1.12	0.95;
	626	1	13.32	2	0	0	1	1	0	110	1	1.12	0.95;
	627	1	8.38	0.6	0	0	1	1	0	110	1	1.12	0.95;
	628	1	15.29	1.4	0	0	1	1	0	110	1	1.12	0.95;
	629	1	0	0	0	0	1	1	0	110	1	1.12	0.95;
	630	1	11.28	6.51	0	0	1	1	0	110	1	1.12	0.95;
	631	1	14.6	3.9	0	0	1	1	0	110	1	1.12	0.95;
	632	1	7.3	3.3	0	0	1	1	0	110	1	1.12	0.95;
	633	2	10.25	2.82	0	0	1	1	0	110	1	1.12	0.95;
	634	1	7.68	2.8	0	0	1	1	0	110	1	1.12	0.95;
	635	1	9.37	2.5	0	0	1	1	0	110	1	1.12	0.95;
	636	1	8.98	2.3	0	0	1	1	0	110	1	1.12	0.95;
	637	1	9.86	1.3	0	0	1	1	0	110	1	1.12	0.95;
	638	1	5.13	1.89	0	0	1	1	0	110	1	1.12	0.95;
	639	1	0	0	0	0	1	1	0	110	1	1.12	0.95;
	640	1	4.89	1.5	0	0	1	1	0	110	1	1.12	0.95;
	641	1	7.2	2.65	0	0	1	1	0	110	1	1.12	0.95;
	642	1	0	0	0	0	1	1	0	110	1	1.12	0.95;
	643	1	3.65	1.2	0	0	1	1	0	110	1	1.12	0.95;
	644	1	2.17	0.2	0	0	1	1	0	110	1	1.12	0.95;
	645	1	5.42	0	0	0	1	1	0	110	1	1.12	0.95;
	646	1	4.93	0	0	0	1	1	0	110	1	1.12	0.95;
	647	1	12.33	0	0	0	1	1	0	110	1	1.12	0.95;
	648	1	0.59	0.2	0	0	1	1	0	110	1	1.12	0.95;
	649	1	0.89	0.2	0	0	1	1	0	110	1	1.12	0.95;
	650	1	14.3	1.9	0	0	1	1	0	110	1	1.12	0.95;
	651	1	3.35	0.4	0	0	1	1	0	110	1	1.12	0.95;
	652	1	2.47	0.6	0	0	1	1	0	110	1	1.12	0.95;
	653	1	1.09	0.3	0	0	1	1	0	110	1	1.12	0.95;
	654	1	16.4	7.51	0	0	1	1	0	110	1	1.12	0.95;
	655	1	18.05	6.65	0	0	1	1	0	110	1	1.12	0.95;
	656	1	0	0	0	0	1	1	0	110	1	1.12	0.95;
	657	1	5.92	0.2	0	0	1	1	0	110	1	1.12	0.95;
	658	1	5.92	0.2	0	0	1	1	0	110	1	1.12	0.95;
	659	1	4.83	1.1	0	0	1	1	0	110	1	1.12	0.95;
	660	1	0	0	0	0	1	1	0	110	1	1.12	0.95;
	661	1	7.68	3.5	0	0	1	1	0	110	1	1.12	0.95;
	662	1	0	0	0	0	1	1	0	110	1	1.12	0.95;
	663	2	9.86	1.6	0	0	1	1	0	110	1	1.12	0.95;
	664	1	3.55	0.6	0	0	1	1	0	110	1	1.12	0.95;
	665	1	10.56	1.5	0	0	1	1	0	110	1	1.12	0.95;
	666	1	10.85	1.2	0	0	1	1	0	110	1	1.12	0.95;
	667	1	0	0	0	0	1	1	0	110	1	1.12	0.95;
	668	1	0	0	0	0	1	1	0	110	1	1.12	0.95;
	669	2	0.99	-14.55	0	0	1	1	0	110	1	1.12	0.95;
	670	1	0.99	0.3	0	0	1	1	0	110	1	1.12	0.95;
	671	1	3.45	1.05	0	0	1	1	0	110	1	1.12	0.95;
	672	1	3.45	1.05	0	0	1	1	0	110	1	1.12	0.95;
	673	1	0	0	0	0	1	1	0	110	1	1.12	0.95;
	674	1	5.92	0.5	0	0	1	1	0	110	1	1.12	0.95;
	675	1	17.76	5.41	0	0	1	1	0	110	1	1.12	0.95;
	676	1	17.76	5.41	0	0	1	1	0	110	1	1.12	0.95;
	677	1	15.29	3.88	0	0	1	1	0	110	1	1.12	0.95;
	678	1	15.29	3.88	0	0	1	1	0	110	1	1.12	0.95;
	679	1	0	0	0	0	1	1	0	110	1	1.12	0.95;
	680	1	4.93	1.4	0	0	1	1	0	110	1	1.12	0.95;
	681	1	13.32	4.19	0	0	1	1	0	110	1	1.12	0.95;
	682	1	13.32	4.19	0	0	1	1	0	110	1	1.12	0.95;
	683	1	4.93	4	0	0	1	1	0	110	1	1.12	0.95;
	684	1	5.13	2	0	0	1	1	0	110	1	1.12	0.95;
	685	1	5.13	2	0	0	1	1	0	110	1	1.12	0.95;
	686	1	3.33	1.2	0	0	1	1	0	110	1	1.12	0.95;
	687	1	4.62	2	0	0	1	1	0	110	1	1.12	0.95;
	688	1	6.12	1.86	0	0	1	1	0	110	1	1.12	0.95;
	689	1	6.12	1.86	0	0	1	1	0	110	1	1.12	0.95;
	690	1	12.33	4.63	0	0	1	1	0	110	1	1.12	0.95;
	691	1	12.33	4.63	0	0	1	1	0	110	1	1.12	0.95;
	692	1	11.84	3.84	0	0	1	1	0	110	1	1.12	0.95;
	693	1	11.84	3.84	0	0	1	1	0	110	1	1.12	0.95;
	694	1	9.37	3.61	0	0	1	1	0	110	1	1.12	0.95;
	695	1	9.37	3.61	0	0	1	1	0	110	1	1.12	0.95;
	696	1	4.93	0.8	0	0	1	1	0	110	1	1.12	0.95;
	697	1	22.98	7	0	0	1	1	0	110	1	1.12	0.95;
	698	1	40.34	12.28	0	0	1	1	0	110	1	1.12	0.95;
	699	1	3.65	1	0	0	1	1	0	110	1	1.12	0.95;
	700	1	2.76	0.6	0	0	1	1	0	110	1	1.12	0.95;
	701	1	18.35	7.38	0	0	1	1	0	110	1	1.12	0.95;
	702	1	0	0	0	0	1	1	0	110	1	1.12	0.95;
	703	1	5.92	4	0	0	1	1	0	110	1	1.12	0.95;
	704	1	1.48	0.35	0	0	1	1	0	110	1	1.12	0.95;
	705	1	1.48	0.35	0	0	1	1	0	110	1	1.12	0.95;
	706	1	2.47	0	0	0	1	1	0	110	1	1.12	0.95;
	707	1	6.41	1.69	0	0	1	1	0	110	1	1.12	0.95;
	708	1	6.41	1.69	0	0	1	1	0	110	1	1.12	0.95;
	709	1	0.79	0.24	0	0	1	1	0	110	1	1.12	0.95;
	710	1	0.79	0.24	0	0	1	1	0	110	1	1.12	0.95;
	711	1	10.36	4.1	0	0	1	1	0	110	1	1.12	0.95;
	712	1	10.36	4.1	0	0	1	1	0	110	1	1.12	0.95;
	713	1	9.86	2.8	0	0	1	1	0	110	1	1.12	0.95;
	714	1	9.86	2.8	0	0	1	1	0	110	1	1.12	0.95;
	715	1	5.12	1	0	0	1	1	0	110	1	1.12	0.95;
	716	1	10.51	4.6	0	0	1	1	0	110	1	1.12	0.95;
	717	1	10.65	-2.5	0	0	1	1	0	110	1	1.12	0.95;
	718	1	10.56	-2.6	0	0	1	1	0	110	1	1.12	0.95;