function mpc = case2848rte
%CASE2848RTE  AC Power flow data for French system.
%   Please see CASEFORMAT for details on the case file format.
%
%   This case accurately represents the size and complexity of French
%   very high voltage transmission network.
%   Part of this data was sampled in the offline platform of iTesla.
%   These data can be used to validate mathematical methods and tools.
%   These data should NOT be used for operation
%   nor planning of the French or European grids.
%
%   When publishing results based on this data, please cite:
%
%     C. Josz, S. Fliscounakis, J. Maeght, and P. Panciatici, "AC Power Flow
%     Data in MATPOWER and QCQP Format: iTesla, RTE Snapshots, and PEGASE"
%     http://arxiv.org/abs/1603.01533
%
%   Contacts:
%     Cédric Josz, Stéphane Fliscounakis, Jean Maeght, Patrick Panciatici
%     firstname.lastname@rte-france.com
%     Réseau de Transport d'Electricité (French Transmission System Operator)
%     Département Expertise Système, Immeuble "Le Colbert"
%     9 rue de la Porte de Buc, 78000 Versailles Cedex, France
%
%   March 3rd, 2016

%   MATPOWER
%   Copyright (c) 2016 by Cédric Josz, Stéphane Fliscounakis, Jean Maeght,
%   and Patrick Panciatici
%   Licensed under the Creative Commons Attribution 4.0 International license,
%   http://creativecommons.org/licenses/by/4.0/

%% MATPOWER Case Format : Version 2
mpc.version = '2';

%%-----  Power Flow Data  -----%%
%% system MVA base
mpc.baseMVA = 100;

%% bus data
%	bus_i	type	Pd	Qd	Gs	Bs	area	Vm	Va	baseKV	zone	Vmax	Vmin
mpc.bus = [
	1	1	20.6	0	0	0	1	1.05470451	-6.36026061	63	1	1.06349	0.936508;
	2	1	20.9	17.2	0	0	1	1.02159805	-10.0314743	225	1	1.08889	0.888889;
	3	1	0	0	0	0	1	1.05588778	-3.06269451	380	1	1.10263	1;
	4	1	0	0	0	0	1	1.03948873	-12.6263397	63	1	1.07937	0.920635;
	5	1	0.4	0.1	0	0	1	0.940804175	-6.95718171	45	1	1	0.888889;
	6	1	-2.3	-20.6	0	0	1	0.941885188	-6.97237088	45	1	1	0.888889;
	7	1	110.5	-25.5	0	0	1	1.05055953	-2.81195782	225	1	1.08444	1;
	8	1	44.7	1.5	0	0	1	1.0071444	-12.4478352	63	1	1.06349	0.968254;
	9	1	0	0	0	-21	1	1.04132742	-4.20175523	20	1	1.2	0.8;
	2966	1	0	0	0	-64	1	1.00669238	-7.54386139	20	1	1.2	0.8;
	10	1	0	0	0	0	1	1.05503926	-6.89751672	150	1	1.10667	0.9;
	11	1	31.7	-8.7	0	0	1	1.05818138	-7.16161201	225	1	1.08889	0.933333;
	2571	1	43.7	9.9	0	0	1	1.05428054	-6.88624557	225	1	1.08889	0.933333;
	12	1	0	0	0	0	1	1.06222639	-4.24366423	380	1	1.10526	1;
	13	1	0	0	0	0	1	1.03414703	-9.76584244	225	1	1.09067	1;
	14	1	-4.1	3.7	0	0	1	1.0215438	-9.38943925	63	1	1.06349	0.936508;
	15	1	9	-3.3	0	0	1	1.04614056	-8.39002618	63	1	1.06349	0.936508;
	16	1	120	6.3	0	0	1	1.06403453	-8.65058577	225	1	1.08889	0.933333;
	17	1	35	6.9	0	0	1	1.02935099	-12.4430446	225	1	1.08889	1;
	18	1	45	13.4	0	0	1	1.0075651	-9.91263869	225	1	1.08962	1;
	19	2	0	0	0	0	1	1.049	-8.246157	63	1	1.08661	0.920635;
	20	1	77.3	29.1	0	0	1	1.02929559	-12.4534553	225	1	1.08889	1;
	21	1	48.4	4	0	0	1	1.02562416	-6.46141759	225	1	1.08889	0.888889;
	22	1	4.6	-11.4	0	0	1	1.09924094	-10.8960451	63	1	1.07249	0.936508;
	23	1	33.3	-5.7	0	0	1	1.0301766	-9.27643904	63	1	1.06349	0.936508;
	24	1	0	0	0	0	1	1.03910213	-6.68968647	225	1	1.08889	1;
	2573	1	0	0	0	0	1	1.03910921	-6.69233272	225	1	1.08889	1;
	25	1	18	5.6	0	0	1	1.02598542	-6.49866255	225	1	1.08889	0.888889;
	26	1	1	-8	0	0	1	1.06325955	-1.70151189	225	1	1.09649	0.986667;
	27	1	22	-5.6	0	0	1	1.05527933	-8.77731848	63	1	1.06349	0.936508;
	28	1	-2.1	-0.1	0	0	1	1.01993061	-10.9621246	225	1	1.08889	1;
	2574	1	39.1	10	0	0	1	1.01988664	-10.965406	225	1	1.08889	1;
	29	1	7.1	-2.6	0	0	1	1.03819592	-8.39782087	63	1	1.06349	0.936508;
	30	1	3.5	-40	0	0	1	1.03258071	-10.6681728	225	1	1.08889	1;
	31	1	7.7	-1.8	0	0	1	1.04938692	-6.3603325	63	1	1.07211	0.936508;
	32	1	12.1	2.1	0	0	1	1.04250787	-8.31281305	63	1	1.06349	0.936508;
	33	1	2.4	-0.4	0	0	1	0.940485632	-7.25819904	45	1	1	0.888889;
	34	1	-0	0	0	0	1	0.940865068	-6.95267473	45	1	1	0.888889;
	35	1	26	0.1	0	0	1	1.03234966	-13.0968693	63	1	1.06349	0.968254;
	36	1	0.7	-4.1	0	0	1	0.988075344	-9.71068641	45	1	1	0.888889;
	37	1	9.3	-5.3	0	0	1	1.04678026	-7.87153815	63	1	1.06349	0.936508;
	39	1	78.4	-4.8	0	0	1	1.05160168	-6.13328797	225	1	1.08934	0.986667;
	40	1	25.1	-3.3	0	0	1	1.03063944	-8.10910456	225	1	1.08889	0.888889;
	41	1	80.4	7.4	0	0	1	1.06101612	-20.3127254	225	1	1.08444	1;
	42	1	37.8	2.9	0	0	1	1.05037433	-6.38658783	63	1	1.0637	0.936508;
	43	1	0	0	0	0	1	1.05574253	-5.20380665	225	1	1.08889	0.933333;
	44	1	29	-10	0	0	1	1.03096413	-13.3440235	63	1	1.06349	0.968254;
	45	1	97.4	-3	0	0	1	1.02760856	-8.13451475	225	1	1.08889	1;
	46	1	0	0	0	0	1	1.05587689	-3.05334806	380	1	1.10526	1;
	2575	1	0	0	0	0	1	1.05588619	-3.04946991	380	1	1.10526	1;
	47	1	21.3	-2.6	0	0	1	1.03304321	-5.13913852	63	1	1.06606	0.936508;
	48	1	-0.3	0.8	0	0	1	1.05369464	-6.66317717	63	1	1.06735	0.936508;
	49	1	11.6	3.2	0	0	1	1.0303725	-6.10178718	63	1	1.06349	0.968254;
	2576	1	9.3	4.7	0	0	1	1.0302496	-6.84730915	63	1	1.06349	0.968254;
	50	1	0	0	0	0	1	1.05751774	-5.77466491	225	1	1.08444	1;
	51	1	66.6	0	0	0	1	1.04138928	-9.34301151	225	1	1.08444	1;
	52	1	0	0	0	0	1	1.02965965	-12.3109268	225	1	1.08889	1;
	2942	1	53.9	11.2	0	0	1	1.0173724	-12.1166435	225	1	1.08889	1;
	53	2	7.9	-4.7	0	0	1	1.05	-9.86414774	63	1	1.06349	0.968254;
	54	1	0	0	0	0	1	1.06856453	-8.92739903	150	1	1.08	0.966667;
	55	1	40.5	8.5	0	0	1	1.01750681	-22.5640563	225	1	1.09459	1;
	56	1	0	0	0	0	1	1.02812553	-20.2896436	380	1	1.10526	1;
	57	1	80.2	-7.7	0	0	1	1.05169697	-9.38998454	225	1	1.08889	0.986667;
	58	1	0	0	0	-64	1	1.02139829	-6.61396329	20	1	1.2	0.8;
	59	1	35.3	-9.2	0	0	1	1.02572051	-6.37982103	225	1	1.08889	0.968889;
	60	1	58.9	2.6	0	0	1	1.02923842	-5.15337783	380	1	1.10526	1;
	61	1	5.5	1.7	0	0	1	1.05015512	-7.76189029	63	1	1.06349	0.936508;
	62	1	0.6	0.7	0	0	1	0.999480934	-13.640044	63	1	1.06349	0.968254;
	63	1	28.6	4.1	0	0	1	0.999689018	-13.6374304	63	1	1.06349	0.968254;
	2577	1	0	0	0	0	1	0.999684281	-14.9082168	63	1	1.06349	0.968254;
	64	1	39.6	9.4	0	0	1	1.06725685	-5.84543649	225	1	1.08889	0.933333;
	65	1	0	0	0	0	1	0.999663036	-14.9116454	63	1	1.06349	0.968254;
	66	1	12.5	-6.5	0	0	1	0.997367849	-6.30218084	45	1	1	0.888889;
	2578	2	0	0	0	0	1	1	-6.33871659	45	1	1	0.888889;
	67	1	0.4	3.2	0	0	1	1.0310041	-7.7303186	225	1	1.08889	0.888889;
	2579	1	42.5	7.2	0	0	1	1.0305907	-7.82315842	225	1	1.08889	0.888889;
	68	1	4.2	-2.2	0	0	1	1.03362169	-16.0862093	20	1	1.2	0.8;
	69	1	139.3	4.7	0	0	1	1.03360711	-16.084233	225	1	1.08685	1;
	70	1	83.7	-8.3	0	0	1	1.034954	-11.8072494	225	1	1.08889	1;
	71	2	0	0	0	0	1	1.079	-9.57327967	150	1	1.10885	0.9;
	72	1	0	0	0	0	1	1.02511353	-10.801354	225	1	1.08889	1;
	2580	1	0	0	0	0	1	1.02511332	-10.8013528	225	1	1.08889	1;
	74	1	0	0	0	-80	1	1.02511209	-10.8013459	225	1	1.08889	1;
	75	1	15.2	5.4	0	0	1	1.03893454	-5.27223942	63	1	1.06349	0.936508;
	76	2	0	0	0	0	1	0.953	-5.60214855	45	1	1	0.888889;
	77	1	5.7	-1.3	0	0	1	1.04829988	-9.04774903	63	1	1.08481	0.920635;
	78	1	7.8	5.8	0	0	1	1.02659198	-8.46669539	225	1	1.08889	1;
	79	1	14	-4.6	0	0	1	1.02059953	-23.2891822	63	1	1.07937	0.920635;
	80	1	7.1	-2.3	0	0	1	1.05709923	-10.2916878	63	1	1.08744	0.920635;
	81	1	0	0	0	0	1	1.05316553	-11.9798632	225	1	1.08889	1;
	82	1	59.6	24	0	0	1	1.03021446	-8.29389364	225	1	1.08889	0.888889;
	83	1	27.8	-7.5	0	0	1	1.01336719	-17.7847619	63	1	1.06349	0.967399;
	84	1	61.1	-4.5	0	0	1	1.00899018	-6.86088938	225	1	1.08889	0.968889;
	85	1	0	0	0	0	1	1.00582323	-4.80208979	380	1	1.10526	1;
	86	1	31.8	1	0	0	1	1.01449967	-15.6928268	63	1	1.06349	0.968254;
	87	1	22.8	-0.9	0	0	1	1.02594104	-7.92848984	63	1	1.06349	0.968254;
	88	1	2.1	0.8	0	0	1	1.01573779	-10.8697023	63	1	1.06349	0.968254;
	89	1	30.5	6.3	0	0	1	0.995988807	-8.9710933	63	1	1.06349	0.968254;
	2581	1	32	12.1	0	0	1	0.995955047	-8.89879361	63	1	1.06349	0.968254;
	90	1	0	0	0	0	1	1.040345	-8.81928779	225	1	1.08444	1;
	2582	1	0	0	0	0	1	1.04046537	-8.81886463	225	1	1.08444	1;
	91	1	89.3	-15.7	0	0	1	1.03589901	-12.9847819	225	1	1.08889	1;
	92	1	6.4	-11.6	0	0	1	1.0773422	-4.35184814	225	1	1.09041	0.933333;
	93	2	0	0	0	0	1	1.078	-9.67303839	150	1	1.10907	0.9;
	94	1	37.7	57.2	0	0	1	1.03370721	-7.579802	225	1	1.08444	1;
	2583	1	33.4	-0.5	0	0	1	1.0346576	-7.58567408	225	1	1.08444	1;
	95	1	0	0	0	0	1	1.03512475	-7.90435919	225	1	1.08889	0.977778;
	96	1	9	0.8	0	0	1	1.04308726	-6.05919942	225	1	1.08889	0.888889;
	97	1	35.8	4.5	0	0	1	1.00116437	-14.57533	63	1	1.06349	0.968254;
	98	1	16.5	-8.7	0	0	1	1.05435999	-7.28660136	225	1	1.08889	0.933333;
	99	1	28.6	5	0	0	1	1.03406228	-9.82270804	225	1	1.08889	1;
	2584	1	14.5	3.6	0	0	1	1.00686529	-10.0792538	225	1	1.08889	1;
	100	1	7.3	-5.1	0	0	1	1.05230707	-12.2736164	225	1	1.08889	1;
	101	1	6.4	2.5	0	0	1	1.0477396	-5.78079344	225	1	1.08889	0.986667;
	102	1	0	0	0	0	1	1.03543967	-7.59799652	225	1	1.08889	0.888889;
	2585	1	0	0	0	0	1	1.03250713	-7.70002071	225	1	1.08889	0.888889;
	103	1	0	0	0	0	1	1.0354284	-5.85418481	380	1	1.10526	1;
	104	1	45.6	7	0	0	1	1.02012385	-11.1249232	225	1	1.08889	1;
	2586	1	19.1	5.8	0	-80	1	1.02519836	-9.92093035	225	1	1.08889	1;
	105	1	10.1	-0.9	0	0	1	1.02240628	-11.7394734	63	1	1.07937	0.920635;
	106	1	0	0	0	0	1	1.05453368	-6.30318143	225	1	1.08889	0.977778;
	2587	1	0	0	0	0	1	1.05454939	-6.30342404	225	1	1.08889	0.977778;
	107	1	8.4	3.5	0	0	1	1.03341873	-9.33683254	63	1	1.06349	0.968254;
	108	1	39.7	-6.4	0	0	1	1.05327278	-6.84719521	225	1	1.08444	1;
	109	1	0	0	0	0	1	1.04505982	-5.67696448	225	1	1.08444	1;
	110	1	0	0	0	0	1	1.04245389	0.658976821	380	1	1.10263	1;
	111	1	62.2	-16.1	0	0	1	1.0449323	-5.74055895	225	1	1.08444	1;
	112	1	2.2	-1	0	0	1	1.00833098	-9.79513081	225	1	1.09035	1;
	2588	1	12.3	-2	0	0	1	1.00830403	-9.80171214	225	1	1.09035	1;
	113	1	5	-3.8	0	0	1	1.05835537	-2.9554883	225	1	1.08889	0.888889;
	114	1	30	0	0	0	1	1.0458544	-8.537789	63	1	1.06349	0.936508;
	115	1	11.7	1.8	0	0	1	1.02989719	-7.47988769	225	1	1.08889	0.888889;
	116	1	51.9	15.9	0	0	1	1.00893367	-7.47468297	225	1	1.08889	0.888889;
	117	1	2.6	0.2	0	0	1	1.04056825	-7.77992158	63	1	1.06349	0.968254;
	118	1	38	3.1	0	0	1	1.00631183	-25.3303958	63	1	1.07937	0.920635;
	119	1	24	-7.3	0	0	1	1.027299	-15.3864117	63	1	1.06349	0.968254;
	120	2	0	0	0	0	1	1.038	-6.16337145	63	1	1.06863	0.936508;
	121	1	8	2.5	0	0	1	1.03115825	-18.4930713	63	1	1.06349	0.968254;
	2589	1	9.9	3.5	0	0	1	1.03151661	-18.5003924	63	1	1.06349	0.968254;
	122	1	77.1	-3.9	0	0	1	1.02568006	-7.97134302	225	1	1.08889	1;
	123	1	21.2	4.4	0	0	1	1.03854288	-13.8649462	63	1	1.07937	0.920635;
	124	2	-0	-4.6	0	0	1	1.047	-10.0473018	63	1	1.08203	0.920635;
	125	1	0	0	0	0	1	1.03627903	-18.561608	63	1	1.07937	0.920635;
	126	1	0	0	0	0	1	1.01319228	-12.8327281	225	1	1.08889	1;
	127	1	0	0	0	0	1	1.05062871	-12.8751284	380	1	1.10526	1;
	128	1	17.1	1.5	0	0	1	1.0548165	-6.4342118	63	1	1.06349	0.936508;
	129	2	18.2	12.2	0	0	1	1.029	-7.4188605	63	1	1.06349	0.936508;
	130	1	-13.2	16.1	0	0	1	1.0438103	-13.0828949	63	1	1.07937	0.920635;
	131	1	0	0	0	0	1	1.04997009	-11.375814	225	1	1.08889	1;
	132	1	81.2	18.3	0	0	1	1.04787402	-10.5448015	225	1	1.08889	1;
	133	2	9.6	3.3	0	0	1	1.028	-21.4059689	63	1	1.06538	0.968254;
	134	2	0	0	0	0	1	1.042	-15.5753316	150	1	1.08	0.966667;
	135	2	-8.9	-4.4	0	0	1	1.066	-10.8988078	63	1	1.07937	0.920635;
	136	1	-10.6	-2.1	0	0	1	1.03361325	-4.09140552	225	1	1.08889	0.986667;
	137	1	14.1	-3.7	0	0	1	1.01208758	-12.7523015	63	1	1.06349	0.968254;
	138	1	11.3	-2.7	0	0	1	1.07000448	-4.36673714	225	1	1.08444	1;
	139	1	9.4	-2.2	0	0	1	1.0098168	-20.8608447	63	1	1.06349	0.968254;
	140	1	0	0	0	0	1	1.02957315	-2.43049674	380	1	1.10526	1;
	2590	1	0	0	0	0	1	1.03059016	-2.74964759	380	1	1.10526	1;
	141	1	11.1	4.5	0	0	1	1.02794966	-8.01355421	225	1	1.08889	1;
	142	1	7.2	5.2	0	0	1	1.03527316	-10.5477788	225	1	1.08889	1;
	143	1	20.9	-1.3	0	0	1	1.0156966	-14.3067102	63	1	1.06349	0.968254;
	144	1	33.4	6.5	0	0	1	1.06450753	-11.4790353	150	1	1.1	0.9;
	145	1	61.8	-3.3	0	0	1	1.03168242	-14.3088938	225	1	1.08925	1;
	146	2	0	-0	0	0	1	1.02	-10.9841092	225	1	1.08889	1;
	147	1	0	0	0	0	1	1.05726942	-7.25386689	225	1	1.08889	0.933333;
	148	1	0	0	0	0	1	1.06212699	-4.22135461	380	1	1.10526	1;
	2591	1	0	0	0	0	1	1.06215942	-4.21515111	380	1	1.10526	1;
	149	1	0	0	0	0	1	1.02963817	-12.423694	225	1	1.08889	1;
	2592	1	61.8	10.2	0	0	1	1.01653799	-12.2983583	225	1	1.08889	1;
	150	1	0	0	0	0	1	1.01066159	-5.39373722	225	1	1.08889	0.986667;
	151	1	9.8	4.5	0	0	1	1.02946506	-12.43406	225	1	1.08889	1;
	152	1	0	0	0	0	1	1.06476781	-3.62849011	20	1	1.2	0.8;
	153	1	88.2	-7.1	0	0	1	1.05668343	-3.22112522	225	1	1.08889	0.933333;
	154	1	0	0	0	0	1	1.05807749	-1.38344872	380	1	1.10526	1;
	155	1	23.8	-12.3	0	0	1	1.02642423	-6.35525738	225	1	1.08889	1;
	156	1	18.2	-0.6	0	0	1	1.05933631	-7.56367112	63	1	1.06503	0.936508;
	157	1	0.4	0.2	0	0	1	1.03786549	-9.40822782	63	1	1.06349	0.968254;
	158	1	18.7	-2.5	0	0	1	1.02886987	-15.0271693	63	1	1.07937	0.920635;
	159	1	19.2	-1	0	0	1	1.01435913	-16.3125652	63	1	1.06349	0.968254;
	160	1	4	0.2	0	0	1	1.05293054	-8.69416637	63	1	1.06349	0.936508;
	161	2	0	0	0	0	1	1.063	-15.102627	63	1	1.15	0.8;
	162	1	2.8	3.9	0	0	1	1.03530426	-11.220724	225	1	1.09053	1;
	163	1	0	0	0	0	1	1.03097224	-23.8741599	63	1	1.06349	0.968254;
	164	1	68.7	-27.8	0	0	1	1.04298945	-15.2894298	225	1	1.09791	1;
	165	1	70.9	-7.8	0	0	1	1.03980018	-3.98818151	225	1	1.08889	0.986667;
	166	1	35.7	1.2	0	0	1	1.0138269	-10.9079236	63	1	1.06349	0.968254;
	167	1	66.9	15.7	0	0	1	1.03414515	-9.7605369	225	1	1.09067	1;
	168	1	10.2	-5.9	0	0	1	1.05143246	-8.21379396	63	1	1.06349	0.936508;
	169	1	22.5	-8.3	0	0	1	1.03977254	-11.0520793	63	1	1.06349	0.968254;
	170	1	3.1	1.2	0	0	1	1.04549514	-7.92681615	63	1	1.06822	0.936508;
	171	1	103.9	36.4	0	0	1	1.0279787	-8.48321396	225	1	1.08889	0.924444;
	172	2	-0	0	0	0	1	1.03117205	-7.46842751	63	1	1.06349	0.968254;
	173	1	46.9	-16.3	0	0	1	1.05679354	-0.866806167	225	1	1.09616	0.986667;
	174	1	0	0	0	0	1	1.05916881	-0.28973401	380	1	1.10526	1;
	175	1	83.4	-19.9	0	0	1	1.05104139	-13.6865226	225	1	1.08444	1;
	176	1	0	0	0	-64	1	1.00911929	-19.4666264	20	1	1.2	0.8;
	177	1	0	0	0	0	1	0.98594024	-20.9282754	63	1	1.06349	0.960855;
	178	1	0	0	0	0	1	1.05933935	-19.1624772	225	1	1.08444	1;
	179	1	0	0	0	0	1	1.05477538	-16.725398	380	1	1.10263	1;
	180	1	-0.3	-5.1	0	0	1	1.05732887	-3.22758491	225	1	1.08889	0.933333;
	181	1	-0.2	-8.9	0	0	1	0.995614012	-6.48033263	45	1	1.01652	0.888889;
	182	1	0	0	0	0	1	1.05049999	-7.73143509	63	1	1.06349	0.936508;
	183	1	0	0	0	0	1	1.0560569	-5.44756333	225	1	1.08889	0.933333;
	184	2	0	0	0	0	1	1.056	-5.71662703	225	1	1.08889	0.977778;
	185	1	12.8	-5.2	0	0	1	1.03613008	-8.35030045	63	1	1.06349	0.936508;
	186	1	-3.5	-3.5	0	0	1	1.03237097	0.253816362	225	1	1.09862	1;
	187	1	0	0	0	0	1	1.02767291	0.215362838	380	1	1.10526	1;
	2593	1	0	0	0	0	1	1.02770372	0.22647726	380	1	1.10526	1;
	2594	1	0	0	0	0	1	1.02763175	0.255639302	380	1	1.10526	1;
	2595	1	0	0	0	0	1	1.02767555	0.242474884	380	1	1.10526	1;
	188	1	0	0	0	0	1	1.05681566	-0.865700551	225	1	1.09683	0.986667;
	2596	1	0	0	0	0	1	1.05670223	-0.787325336	225	1	1.09683	0.986667;
	189	1	0	0	0	0	1	1.05905251	-0.21992874	380	1	1.10526	1;
	190	1	8.4	-10.3	0	0	1	1.02956968	-6.56343814	225	1	1.08889	0.968889;
	191	1	34.1	-3.5	0	0	1	1.01018328	-24.5482822	63	1	1.06349	0.968254;
	192	1	29.2	4.5	0	0	1	1.06093648	-20.264053	225	1	1.08444	1;
	193	1	11.4	4.2	0	0	1	1.04148904	-2.42922661	380	1	1.10526	1;
	194	1	0	0	0	0	1	1.04462712	-7.50926826	63	1	1.06349	0.936508;
	2597	1	0	0	0	0	1	1.03732594	-7.31127404	63	1	1.06349	0.936508;
	195	1	0	0	0	0	1	1.0637091	-4.76954445	225	1	1.08889	0.933333;
	196	1	0	0	0	0	1	1.05644678	-2.04855413	380	1	1.10526	1;
	197	1	3.7	13.7	0	0	1	1.03863902	-6.32659925	63	1	1.06349	0.968254;
	198	1	0	0	0	0	1	1.06479303	-3.48160887	225	1	1.08444	1;
	199	1	152.4	6.2	0	0	1	1.04953137	-2.60802046	225	1	1.08444	1;
	200	1	29.9	3	0	0	1	1.06629546	-5.13765463	225	1	1.08889	0.933333;
	2598	1	35	3.5	0	0	1	1.06628254	-5.14301539	225	1	1.08889	0.933333;
	201	1	24.1	-16.4	0	0	1	1.03534237	-11.2197244	225	1	1.09027	1;
	202	1	0	0	0	0	1	1.08132349	-5.12163025	225	1	1.09529	1;
	2599	1	0	0	0	0	1	1.08132151	-5.12160833	225	1	1.09529	1;
	203	1	36.8	5.3	0	0	1	1.02557445	-7.64636217	225	1	1.08889	1;
	204	1	20.4	-4.2	0	0	1	1.03638185	-8.61147602	225	1	1.08889	1;
	205	1	0	0	0	0	1	1.02744582	-7.67790512	63	1	1.06349	0.968254;
	206	1	0	0	0	0	1	1.06771823	-4.543649	225	1	1.08444	1;
	207	1	6.2	2.7	0	0	1	1.02465185	-14.0882926	63	1	1.06349	0.968254;
	208	1	9.6	1	0	0	1	1.02994058	-19.7366091	63	1	1.07937	0.920635;
	209	1	25.7	-12.7	0	0	1	1.04970843	-8.80808334	63	1	1.06349	0.936508;
	210	1	0	0	0	0	1	1.02059953	-23.2891822	63	1	1.07937	0.920635;
	211	1	26.5	-2.3	0	0	1	1.02597726	-8.52640481	225	1	1.08889	1;
	212	1	0	0	0	0	1	1.05498817	-12.5328861	225	1	1.08444	1;
	213	1	0	0	0	0	1	1.05493329	-12.5392421	225	1	1.08444	1;
	2600	1	0	0	0	0	1	1.05464016	-7.54127417	225	1	1.08444	1;
	214	1	0	0	0	0	1	1.05364376	-6.10353033	380	1	1.10263	1;
	215	1	1.5	-0	0	0	1	1.05129954	-7.00123701	63	1	1.06418	0.936508;
	216	1	101.1	-8.8	0	0	1	1.00928168	-7.46424538	225	1	1.08889	0.888889;
	217	1	0	0	0	0	1	1.03235862	0.253693331	225	1	1.09861	1;
	218	1	0	0	0	0	1	1.02776341	0.17349231	380	1	1.10526	1;
	219	1	17.3	3.3	0	0	1	1.04433201	-7.02045301	225	1	1.08889	0.986667;
	220	2	0	0	0	0	1	1.039	-21.2167958	63	1	1.06349	0.968254;
	221	1	21.6	-6.3	0	0	1	1.02642981	-11.1643807	63	1	1.07937	0.920635;
	222	1	0	0	0	0	1	1.05780953	-10.4524181	225	1	1.08889	1;
	223	1	0	0	0	0	1	1.04009075	-16.9622419	225	1	1.08444	1;
	2601	1	0	0	0	0	1	1.04008346	-16.962045	225	1	1.08444	1;
	2602	1	0	0	0	0	1	1.04008346	-16.962045	225	1	1.08444	1;
	224	1	60.6	-5.7	0	0	1	1.04008243	-16.9620172	225	1	1.08444	1;
	225	2	0	0	0	0	1	1.05	-3.10214672	20	1	1.2	0.8;
	226	1	0	0	0	0	1	1.05338904	-5.00499669	225	1	1.08889	0.933333;
	227	1	6.2	7.3	0	0	1	1.04243584	-7.06685849	225	1	1.08889	0.986667;
	228	1	0	0	0	0	1	1.07939497	-5.60220368	20	1	1.2	0.8;
	229	1	0	0	0	0	1	1.08080152	-5.32938771	225	1	1.0904	1;
	230	1	0	0	0	0	1	1.07744918	-3.93390992	380	1	1.10526	1;
	231	2	0	0	0	0	1	1.04	-8.31921568	225	1	1.08889	0.933333;
	232	1	11.4	0.6	0	0	1	1.01477754	-10.0653597	63	1	1.06349	0.968254;
	2603	1	9	0.1	0	0	1	1.04597647	-10.3733593	63	1	1.06349	0.968254;
	233	1	0	0	0	0	1	1.06706681	-9.05636789	150	1	1.08	0.966667;
	234	1	1.2	-0.9	0	0	1	1.02054122	-10.8244864	225	1	1.08889	1;
	2604	1	37.3	-0.1	0	0	1	1.02032047	-10.879342	225	1	1.08889	1;
	235	2	0	0	0	0	1	1.053	-6.43863149	63	1	1.06349	0.936508;
	236	2	26.3	1.1	0	0	1	1.024	-10.9378292	63	1	1.06349	0.968254;
	237	1	13.4	-0.3	0	0	1	1.05558674	-7.39858081	63	1	1.06349	0.936508;
	238	1	34.2	0.7	0	0	1	1.0092592	-6.7988384	225	1	1.08889	0.888889;
	240	2	0	0	0	0	1	1.075	-4.12756264	380	1	1.10694	1;
	241	1	9.9	3.2	0	0	1	1.02873473	-4.52871233	63	1	1.06721	0.936508;
	242	1	29.3	2	0	0	1	1.04028444	-11.3554527	63	1	1.06349	0.968254;
	243	1	94.1	-4.7	0	0	1	1.02598513	-8.50184921	225	1	1.08889	1;
	244	1	31.6	4.2	0	0	1	1.01961859	-17.8061605	63	1	1.06349	0.968254;
	245	1	20.3	9.9	0	0	1	1.0351867	-4.33448873	225	1	1.08889	0.986667;
	246	1	0	0	0	0	1	1.05054653	-0.241727156	380	1	1.10526	1;
	2609	1	0	0	0	0	1	1.05451237	-1.05701473	380	1	1.10526	1;
	2610	1	0	0	0	0	1	1.05054547	-0.248379805	380	1	1.10526	1;
	2611	1	0	0	0	0	1	1.05419494	-0.97264233	380	1	1.10526	1;
	247	1	6	-0.9	0	0	1	1.04436077	-6.15893854	225	1	1.08889	0.924444;
	248	1	17.4	1.8	0	0	1	1.04953694	-7.88432214	63	1	1.06349	0.936508;
	249	1	9.4	-0.6	0	0	1	1.02428281	-10.3185434	63	1	1.06349	0.936508;
	250	1	4.2	1.9	0	0	1	1.05054589	-9.84468928	225	1	1.08889	0.986667;
	251	1	62.1	20.2	0	0	1	1.03082654	-12.7693363	225	1	1.08684	1;
	252	2	5.5	4.5	0	0	1	0.998	-4.67841383	45	1	1	0.888889;
	253	1	-2.8	-1.5	0	0	1	1.02076418	2.7848227	380	1	1.10263	1;
	254	1	-2.8	-1.4	0	0	1	1.02097428	2.71318749	380	1	1.10263	1;
	255	1	8.3	-7.3	0	0	1	1.0446713	-7.28543031	63	1	1.06754	0.936508;
	256	1	0	0	0	0	1	1.019401	-11.3175033	225	1	1.08889	1;
	257	1	0	0	0	0	1	1.05621234	-6.8525701	225	1	1.08889	0.977778;
	2612	1	0	0	0	0	1	1.05621234	-6.8525701	225	1	1.08889	0.977778;
	258	1	19.3	-3.2	0	0	1	1.02754964	-6.85362298	225	1	1.08889	0.968889;
	259	2	0	0	0	0	1	1.071	-1.35494023	20	1	1.2	0.8;
	2613	2	0	0	0	0	1	1.05919668	-0.0597462684	20	1	1.2	0.8;
	2614	2	0	0	0	0	1	1.05919668	-0.0597462684	20	1	1.2	0.8;
	260	1	0	0	0	0	1	1.06806055	-3.36659514	225	1	1.08889	0.933333;
	2615	1	0	0	0	0	1	1.05919668	-0.0597462684	225	1	1.08889	0.933333;
	261	1	50	4.4	0	0	1	1.04016711	-8.83480124	225	1	1.08489	1;
	262	2	13.9	-2.1	0	0	1	0.998	-5.27675839	45	1	1	0.888889;
	263	1	19	1.9	0	0	1	1.04040138	-9.54025427	20	1	1.2	0.8;
	2616	1	17.5	-0.7	0	0	1	1.04042341	-9.53969907	20	1	1.2	0.8;
	2617	1	10.8	-3.5	0	0	1	1.040451	-9.53685132	20	1	1.2	0.8;
	264	1	134	-1.7	0	0	1	1.04043108	-9.53192619	225	1	1.08444	1;
	265	1	15.2	-2.7	0	0	1	1.03208141	-12.1619254	63	1	1.06349	0.968254;
	266	1	0	0	0	0	1	1.05193593	-7.88661894	225	1	1.08889	0.977778;
	267	1	0	0	0	0	1	1.04676319	-3.09106032	225	1	1.08444	1;
	268	1	15.8	-8.1	0	0	1	1.05048796	-8.75063399	63	1	1.06349	0.936508;
	269	1	28.5	3.5	0	0	1	1.00771906	-23.5657649	63	1	1.06349	0.968254;
	270	1	59.2	-3	0	0	1	1.03326164	-9.27054143	225	1	1.08889	0.951111;
	271	2	0	0	0	0	1	1.052	-5.79257238	63	1	1.06349	0.936508;
	272	1	40.2	1.2	0	0	1	1.02576397	-9.8628957	225	1	1.08889	1;
	273	1	15.7	-9.2	0	0	1	1.05014107	-10.0524157	225	1	1.08889	0.986667;
	274	2	0	0	0	0	1	1.054	-5.53838705	63	1	1.06349	0.936508;
	275	2	0	0	0	0	1	1.055	-5.1033394	63	1	1.06349	0.936508;
	276	1	9.7	-2.8	0	0	1	1.05944919	-10.5048792	63	1	1.09138	0.920635;
	277	1	11.5	-2	0	0	1	1.03384331	-7.08209698	63	1	1.06725	0.936508;
	279	1	15.4	-1.6	0	0	1	1.05819832	-19.3389224	225	1	1.08444	1;
	280	1	0	0	0	0	1	1.05575769	-17.5270421	380	1	1.10263	1;
	281	1	32.8	-2.2	0	0	1	1.02759774	-7.98286811	63	1	1.06349	0.968254;
	282	1	54.5	4.4	0	0	1	1.02553794	-10.0223558	225	1	1.08889	1;
	283	2	0	0	0	0	1	1.024	-7.14398985	225	1	1.08889	0.888889;
	284	1	0	0	0	0	1	1.02399801	-7.14489996	225	1	1.08889	0.888889;
	285	2	0	0	0	0	1	1.058	-4.69625945	63	1	1.06349	0.936508;
	2618	2	0	0	0	0	1	1.054	-6.59639458	63	1	1.06349	0.936508;
	286	1	158.8	28.8	0	0	1	1.04311113	-9.70913756	225	1	1.08444	1;
	287	1	0	0	0	0	1	1.04334754	-5.87580615	20	1	1.2	0.8;
	2619	1	0	0	0	0	1	1.04334754	-5.87580615	20	1	1.2	0.8;
	2620	1	0	-0	0	0	1	1.04334754	-5.87580615	20	1	1.2	0.8;
	288	1	76.7	12.3	0	0	1	1.04230523	-5.87580615	63	1	1.06349	0.936508;
	289	1	33.8	11.7	0	0	1	1.06147526	-1.60951602	225	1	1.09508	0.986667;
	290	1	67.1	9.9	0	0	1	1.04100576	-9.7566251	225	1	1.08444	1;
	2621	1	19.6	-0.3	0	0	1	1.04133273	-9.353689	225	1	1.08444	1;
	291	2	0	0	0	0	1	1.054	-2.43517818	20	1	1.2	0.8;
	2622	2	0	0	0	0	1	1.045	-1.88622656	20	1	1.2	0.8;
	292	1	0	0	0	0	1	1.04798614	-6.0541485	63	1	1.06349	0.936508;
	2623	1	0	0	0	0	1	1.05222746	-5.47010829	63	1	1.06349	0.936508;
	293	1	0	0	0	0	1	1.05876049	-0.0544058214	225	1	1.08889	0.933333;
	3015	1	0	0	0	0	1	1.0639036	-4.14348397	225	1	1.08889	0.933333;
	294	1	0	0	0	0	1	1.05981742	-0.791171072	380	1	1.10526	1;
	295	1	39.3	1.4	0	0	1	1.04771842	-8.28129393	63	1	1.06349	0.936508;
	296	1	7.2	-1.6	0	0	1	1.03879747	-8.34554145	63	1	1.06349	0.936508;
	297	1	55.3	-9.8	0	0	1	1.0793535	-5.34439522	380	1	1.10526	1;
	298	2	0	0	0	0	1	1.06	2.7194537	20	1	1.2	0.8;
	2624	2	0	0	0	0	1	1.07	-1.91953127	20	1	1.2	0.8;
	2625	2	0	0	0	0	1	1.06	2.7194537	20	1	1.2	0.8;
	299	1	0	0	0	0	1	1.06679313	-3.62009595	225	1	1.08889	0.933333;
	2626	1	0	0	0	0	1	1.06008295	0.381751873	225	1	1.08889	0.933333;
	300	1	8.3	-6.7	0	0	1	1.02919297	-21.3166001	63	1	1.07937	0.920635;
	301	1	62	20.8	0	0	1	1.03473777	-7.47931236	225	1	1.08444	1;
	2627	1	1.1	4.8	0	0	1	1.03520169	-7.41861103	225	1	1.08444	1;
	302	1	-0	-1.1	0	0	1	1.01362663	-20.627668	63	1	1.06349	0.968254;
	303	1	9.6	5.7	0	0	1	1.04178933	-8.92487167	225	1	1.08444	1;
	304	1	11.1	-0.5	0	0	1	1.03305897	-9.64121264	63	1	1.06349	0.968254;
	305	2	0	0	0	0	1	1.03	-6.64247982	63	1	1.06453	0.968254;
	2628	2	0	0	0	0	1	1.031	-5.64711224	63	1	1.06453	0.968254;
	306	1	50.9	4.3	0	0	1	1.03536579	-8.28932109	225	1	1.09106	1;
	307	1	13.1	1.3	0	0	1	1.04137573	-9.67125467	225	1	1.08444	1;
	2629	1	22.3	0.4	0	0	1	1.04107005	-9.70446018	225	1	1.08444	1;
	308	1	1.5	0.8	0	0	1	1.04006117	-6.70756666	150	1	1.10667	0.946667;
	309	1	-0	-4.2	0	0	1	1.0354244	-9.36099459	63	1	1.06349	0.968254;
	310	2	1.6	-2.6	0	0	1	1.067	-8.96595787	63	1	1.08891	0.920635;
	311	1	0	0	0	0	1	1.0497472	-14.8135585	225	1	1.08444	1;
	312	1	0	0	0	0	1	1.0547746	-12.2292045	380	1	1.10263	1;
	313	2	0	0	0	0	1	1.035	-18.2480676	63	1	1.07937	0.920635;
	314	2	0	0	0	0	1	0.986	-5.7543617	45	1	1.00087	0.888889;
	315	1	1.2	-1.2	0	0	1	1.03882811	-9.5219531	63	1	1.06349	0.968254;
	317	1	0	0	0	0	1	1.0524413	-11.8557583	63	1	1.07937	0.920635;
	318	1	-0.6	0.1	0	0	1	1.03915236	-9.70574635	63	1	1.06349	0.968254;
	319	1	11.8	-2.1	0	0	1	1.00982622	-23.3264947	63	1	1.06349	0.968254;
	2630	1	20.8	-3.4	0	0	1	1.00932688	-23.4065332	63	1	1.06349	0.968254;
	2631	1	17.6	4.1	0	0	1	1.00755096	-23.3815014	63	1	1.06349	0.968254;
	320	1	94.8	-14	0	0	1	1.03819988	-14.7618782	225	1	1.09934	1;
	321	1	0	0	0	0	1	1.02645596	-11.8179558	380	1	1.10526	1;
	322	1	42	-1.2	0	0	1	1.04310728	-6.41747843	225	1	1.08889	0.911111;
	323	1	0	0	0	0	1	1.04265947	-3.09551026	380	1	1.10526	1;
	324	1	19.1	2.6	0	0	1	1.02963028	-12.4257144	225	1	1.08889	1;
	2632	1	21.8	2.2	0	0	1	1.01660761	-12.2920081	225	1	1.08889	1;
	325	1	17.2	-0.6	0	0	1	1.0451015	-6.78959087	225	1	1.08889	0.986667;
	2633	1	-1.4	-0.6	0	0	1	1.04526716	-6.72908308	225	1	1.08889	0.986667;
	326	2	8.1	-1.1	0	0	1	1.06	-10.759775	63	1	1.07937	0.920635;
	2634	2	0	0	0	0	1	1.06	-10.5975358	63	1	1.07937	0.920635;
	327	1	-0.1	-0.9	0	0	1	1.01681734	-22.7945026	63	1	1.06349	0.968254;
	328	1	29.3	-7.3	0	0	1	1.02411925	-22.1108214	63	1	1.06349	0.968254;
	329	1	22.9	10.7	0	0	1	1.00588009	-11.7036693	63	1	1.06349	0.968254;
	2635	1	17.9	10.2	0	0	1	1.00762295	-11.6188432	63	1	1.06349	0.968254;
	330	1	35.4	-3	0	0	1	1.04998814	-9.32764703	63	1	1.06405	0.968254;
	331	1	16.2	-2.5	0	0	1	1.02613181	-19.2915356	63	1	1.06349	0.968254;
	2636	1	20.6	-1	0	0	1	1.02503918	-19.3540215	63	1	1.06349	0.968254;
	332	1	0.7	-2.5	0	0	1	1.03197749	-9.28722593	225	1	1.08889	1;
	2637	1	-8.9	1.3	0	0	1	1.0319251	-9.26854621	225	1	1.08889	1;
	333	1	0	0	0	0	1	1.0318441	-9.80125787	225	1	1.08889	1;
	2638	1	89.4	-32.3	0	0	1	1.02719771	-10.4241485	225	1	1.08889	1;
	334	1	40.6	6.7	0	0	1	1.03002599	-10.1767516	225	1	1.08889	1;
	2639	1	33	6.1	0	0	1	1.03045014	-10.1428091	225	1	1.08889	1;
	335	2	5.7	-0.1	0	0	1	1.013	-10.6777533	20	1	1.2	0.8;
	336	1	0	0	0	0	1	1.07184716	-11.9132938	150	1	1.08	0.966667;
	337	1	25.6	1	0	0	1	1.04486399	-11.972416	63	1	1.07937	0.920635;
	338	1	9.4	-1.8	0	0	1	1.04638019	0.623154519	380	1	1.11579	1;
	339	1	25.4	0.5	0	0	1	1.05835758	-0.910648658	380	1	1.11674	1;
	340	1	12.5	-9.7	0	0	1	1.03997556	1.93285176	380	1	1.11579	1;
	341	1	-53.5	-23.1	0	0	1	1.04037761	2.26921196	380	1	1.11587	1;
	342	1	47.2	8.5	0	0	1	1.01966553	-11.0160896	225	1	1.08889	1;
	343	1	0	0	0	0	1	1.0335483	-9.34075673	63	1	1.06349	0.968254;
	344	1	21.4	-2.2	0	0	1	1.03626782	-9.89613693	63	1	1.06349	0.968254;
	345	1	16.2	-2.1	0	0	1	1.0176371	-25.7504265	63	1	1.06349	0.968254;
	346	1	7.9	1.8	0	0	1	0.997830855	-8.98364028	63	1	1.06349	0.968254;
	347	1	0	0	0	-64	1	0.946295016	-12.7175966	20	1	1.2	0.8;
	2640	1	0	0	0	-64	1	0.947749801	-12.9474888	20	1	1.2	0.8;
	348	1	0	0	0	0	1	1.03152514	-12.7097513	225	1	1.08889	1;
	2641	1	0	0	0	0	1	1.031344	-12.5449588	225	1	1.08889	1;
	349	1	0	0	0	0	1	1.04250968	-11.1232869	380	1	1.10526	1;
	350	1	32.1	5.4	0	0	1	1.06350343	-4.21674435	225	1	1.08889	0.933333;
	351	1	-0.8	-1	0	0	1	1.04781106	-8.2633667	63	1	1.06349	0.936508;
	352	1	81.7	-8.9	0	0	1	1.0371005	-6.21673914	380	1	1.10526	1;
	353	1	11.4	-0.4	0	0	1	1.05573722	-8.26380309	63	1	1.06349	0.936508;
	354	1	20	-8	0	0	1	1.02225974	-23.4858626	63	1	1.07937	0.920635;
	355	1	0	0	0	0	1	1.03399138	-11.6318325	20	1	1.2	0.8;
	2943	1	0	0	0	-58	1	0.96263456	-11.8451324	20	1	1.2	0.8;
	2944	1	0	0	0	-58	1	0.965880421	-11.7328997	20	1	1.2	0.8;
	2945	1	0	0	0	-58	1	0.96706677	-12.245569	20	1	1.2	0.8;
	356	1	0	0	0	0	1	1.02982757	-10.7825973	225	1	1.08889	1;
	2642	1	0	0	0	0	1	1.02509169	-10.9250919	225	1	1.08889	1;
	2643	1	3.4	-0.6	0	0	1	1.02826542	-10.8404144	225	1	1.08889	1;
	2644	1	4.8	2	0	0	1	1.02551408	-10.9327587	225	1	1.08889	1;
	357	1	0	0	0	0	1	1.02987521	-7.45782428	380	1	1.10526	1;
	2645	1	0	0	0	0	1	1.02905624	-7.50445646	380	1	1.10526	1;
	358	1	78.5	20.8	0	0	1	1.04577361	-5.88502613	225	1	1.08889	0.928889;
	359	1	96.4	-58.1	0	0	1	1.07941472	-5.35052176	380	1	1.10526	1;
	360	1	16.4	-0.7	0	0	1	1.00996187	-12.6027421	63	1	1.06349	0.968254;
	361	1	89.4	3.6	0	0	1	1.04578212	-9.14126135	225	1	1.08444	1;
	362	1	29.3	0.1	0	0	1	1.0638972	-4.05679844	225	1	1.08889	0.933333;
	363	1	0	0	0	0	1	1.04046745	-4.91714563	63	1	1.06349	0.936508;
	364	1	0	0	0	0	1	1.05537939	-1.23670345	380	1	1.10526	1;
	2963	1	0	0	0	0	1	1.05485549	-1.14210588	380	1	1.10526	1;
	365	1	196.9	18.5	0	0	1	1.04193558	-3.00924111	225	1	1.08444	1;
	366	1	0	0	0	0	1	1.03973605	-1.01148288	380	1	1.10263	1;
	2646	1	0	0	0	0	1	1.03973897	-1.00936828	380	1	1.10263	1;
	367	2	49.6	25.1	0	0	1	1.036	-7.47059241	20	1	1.2	0.8;
	368	1	0	0	0	0	1	1.0569779	-6.54058357	225	1	1.08889	0.986667;
	369	1	151.7	47.7	0	0	1	1.04264203	-7.13988709	225	1	1.08889	0.986667;
	370	1	0.2	-0.4	0	0	1	1.05050245	-7.73161589	63	1	1.06349	0.936508;
	371	2	0	0	0	0	1	1.055	-4.3197058	63	1	1.06349	0.936508;
	372	1	152.6	-17.6	0	0	1	1.05198846	-1.76827499	380	1	1.10263	1;
	373	1	-3.5	-9.1	0	0	1	1.05431747	-3.4978187	225	1	1.09613	0.986667;
	374	1	-0	0	0	0	1	1.05094068	-6.13108548	63	1	1.06349	0.936508;
	375	1	7	-5.3	0	0	1	1.03247264	-7.22940177	63	1	1.06349	0.936508;
	376	1	0.9	-2.6	0	0	1	1.03686128	-7.46393771	225	1	1.08889	1;
	377	1	25.5	-9.3	0	0	1	1.02507306	-10.9083328	225	1	1.08889	1;
	378	1	8.5	-2.6	0	0	1	1.04240576	-6.7361274	63	1	1.06349	0.936508;
	379	1	0	0	0	0	1	1.07167299	-3.48076674	20	1	1.2	0.8;
	380	1	0	0	0	0	1	1.03027494	-4.35892293	63	1	1.06977	0.936508;
	381	1	0	0	0	0	1	1.06171048	-3.01144086	225	1	1.08889	0.933333;
	382	1	0	0	0	0	1	1.05546299	-0.836845399	380	1	1.10526	1;