function mpc = case533mt_hi
%CASE533MT  Power flow data for 533-bus distribution system from Malmer & Thorin
%   Please see CASEFORMAT for details on the case file format.
%
%   This case is based on real system data from the local DSO Kraftringen in
%   southern Sweden. The system covers about 20x30 km and serves about 30,000
%   inhabitants plus an industrial area. 
% 
%   In 2022, the total net load in the system ranged from -5 to 45 MW. 
%   The default loads in this case correspond to the net loads during
%   the maximum net load hour of 2022 (Pd_tot = 45 MW).
%
%   Data from ...
%       G. Malmer & L. Thorin, 
%       "Network reconfiguration for renewable generation maximization",
%       Master's thesis, Lund University, 2023
%       URL: http://lup.lub.lu.se/student-papers/record/9124806

%   MATPOWER
%   Copyright (c) 2023 by Gabriel Malmer and Lovisa Thorin
%   Licensed under the Creative Commons Attribution 4.0 International license,
%   https://creativecommons.org/licenses/by/4.0/

%% MATPOWER Case Format : Version 2
mpc.version = '2';

%%-----  Power Flow Data  -----%%
%% system MVA base
mpc.baseMVA = 50/3; 

%% bus data

% Pd are net loads (pL - pG) from the maximum total net load hour of 2022, Dec 16 at 08:00
% Qd = 0.01*Pd

%	bus_i type Pd	        Qd	            Gs	Bs	area Vm	Va	baseKV	    zone Vmax	Vmin
mpc.bus = [ %% (Pd and Qd are given in single-phase MW & MVAr here)
    1	3	0	            0	            0	0	1	1	0	135/sqrt(3)	1	1	    1
    2	1	0	            0	            0	0	1	1	0	12/sqrt(3)	1	1.05	0.95;
    3	1	0	            0	            0	0	1	1	0	12/sqrt(3)	1	1.05	0.95;
    4	1	0	            0	            0	0	1	1	0	135/sqrt(3)	1	1.05	0.95;
    5	1	0	            0	            0	0	1	1	0	12/sqrt(3)	1	1.05	0.95;
    6	1	0.011666667	    0.000116667	    0	0	1	1	0	12/sqrt(3)	1	1.05	0.95;
    7	1	0.001333333	    1.33E-05	    0	0	1	1	0	12/sqrt(3)	1	1.05	0.95;
    8	1	-0.01	        -0.0001	        0	0	1	1	0	12/sqrt(3)	1	1.05	0.95;
    9	1	0.015430667	    0.000154307	    0	0	1	1	0	12/sqrt(3)	1	1.05	0.95;
    10	1	0.001333333	    1.33E-05	    0	0	1	1	0	12/sqrt(3)	1	1.05	0.95;
    11	1	0.005120333	    5.12E-05	    0	0	1	1	0	12/sqrt(3)	1	1.05	0.95;
    12	1	0.0045	        4.50E-05	    0	0	1	1	0	12/sqrt(3)	1	1.05	0.95;
    13	1	0.012233333	    0.000122333	    0	0	1	1	0	12/sqrt(3)	1	1.05	0.95;
    14	1	0.013601333	    0.000136013	    0	0	1	1	0	12/sqrt(3)	1	1.05	0.95;
    15	1	0.003033333	    3.03E-05	    0	0	1	1	0	12/sqrt(3)	1	1.05	0.95;
    16	1	0.003533333	    3.53E-05	    0	0	1	1	0	12/sqrt(3)	1	1.05	0.95;
    17	1	0.010909333	    0.000109093	    0	0	1	1	0	12/sqrt(3)	1	1.05	0.95;
    18	1	0.003145	    3.15E-05	    0	0	1	1	0	12/sqrt(3)	1	1.05	0.95;
    19	1	0.010404333	    0.000104043	    0	0	1	1	0	12/sqrt(3)	1	1.05	0.95;
    20	1	0.011139333	    0.000111393	    0	0	1	1	0	12/sqrt(3)	1	1.05	0.95;
    21	1	0.002033333	    2.03E-05	    0	0	1	1	0	12/sqrt(3)	1	1.05	0.95;
    22	1	0.043089	    0.00043089	    0	0	1	1	0	12/sqrt(3)	1	1.05	0.95;
    23	1	0.135866	    0.00135866	    0	0	1	1	0	12/sqrt(3)	1	1.05	0.95;
    24	1	0.036602333	    0.000366023	    0	0	1	1	0	12/sqrt(3)	1	1.05	0.95;
    25	1	0.060565667	    0.000605657	    0	0	1	1	0	12/sqrt(3)	1	1.05	0.95;
    26	1	0.026843	    0.00026843	    0	0	1	1	0	12/sqrt(3)	1	1.05	0.95;
    27	1	0.002333333	    2.33E-05	    0	0	1	1	0	12/sqrt(3)	1	1.05	0.95;
    28	1	0.116758667	    0.001167587	    0	0	1	1	0	12/sqrt(3)	1	1.05	0.95;
    29	1	0.01372	        0.0001372	    0	0	1	1	0	12/sqrt(3)	1	1.05	0.95;
    30	1	0.137666667	    0.001376667	    0	0	1	1	0	12/sqrt(3)	1	1.05	0.95;
    31	1	0	            0	            0	0	1	1	0	12/sqrt(3)	1	1.05	0.95;
    32	1	0.073793667	    0.000737937	    0	0	1	1	0	12/sqrt(3)	1	1.05	0.95;
    33	1	0.091932333	    0.000919323	    0	0	1	1	0	12/sqrt(3)	1	1.05	0.95;
    34	1	0.152158667	    0.001521587	    0	0	1	1	0	12/sqrt(3)	1	1.05	0.95;
    35	1	0.104275	    0.00104275	    0	0	1	1	0	12/sqrt(3)	1	1.05	0.95;
    36	1	0.114037	    0.00114037	    0	0	1	1	0	12/sqrt(3)	1	1.05	0.95;
    37	1	0	            0	            0	0	1	1	0	12/sqrt(3)	1	1.05	0.95;
    38	1	0.127620333	    0.001276203	    0	0	1	1	0	12/sqrt(3)	1	1.05	0.95;
    39	1	0.045260333	    0.000452603	    0	0	1	1	0	12/sqrt(3)	1	1.05	0.95;
    40	1	0.104846333	    0.001048463	    0	0	1	1	0	12/sqrt(3)	1	1.05	0.95;
    41	1	0.008302667	    8.30E-05	    0	0	1	1	0	12/sqrt(3)	1	1.05	0.95;
    42	1	0.001666667	    1.67E-05	    0	0	1	1	0	12/sqrt(3)	1	1.05	0.95;
    43	1	0.001	        1.00E-05	    0	0	1	1	0	12/sqrt(3)	1	1.05	0.95;
    44	1	0.128162333	    0.001281623	    0	0	1	1	0	12/sqrt(3)	1	1.05	0.95;
    45	1	0.022831667	    0.000228317	    0	0	1	1	0	12/sqrt(3)	1	1.05	0.95;
    46	1	0.021797	    0.00021797	    0	0	1	1	0	12/sqrt(3)	1	1.05	0.95;
    47	1	-0.020333333	-0.000203333	0	0	1	1	0	12/sqrt(3)	1	1.05	0.95;
    48	1	0.011620333	    0.000116203	    0	0	1	1	0	12/sqrt(3)	1	1.05	0.95;
    49	1	0.0133	        0.000133	    0	0	1	1	0	12/sqrt(3)	1	1.05	0.95;
    50	1	0.014470667	    0.000144707	    0	0	1	1	0	12/sqrt(3)	1	1.05	0.95;
    51	1	0.002515	    2.52E-05	    0	0	1	1	0	12/sqrt(3)	1	1.05	0.95;
    52	1	-0.011666667	-0.000116667	0	0	1	1	0	12/sqrt(3)	1	1.05	0.95;
    53	1	0.009918	    9.92E-05	    0	0	1	1	0	12/sqrt(3)	1	1.05	0.95;
    54	1	0.008893333	    8.89E-05	    0	0	1	1	0	12/sqrt(3)	1	1.05	0.95;
    55	1	0.003348667	    3.35E-05	    0	0	1	1	0	12/sqrt(3)	1	1.05	0.95;
    56	1	0.038106	    0.00038106	    0	0	1	1	0	12/sqrt(3)	1	1.05	0.95;
    57	1	0.098204667	    0.000982047	    0	0	1	1	0	12/sqrt(3)	1	1.05	0.95;
    58	1	0.02217	        0.0002217	    0	0	1	1	0	12/sqrt(3)	1	1.05	0.95;
    59	1	0.013351	    0.00013351	    0	0	1	1	0	12/sqrt(3)	1	1.05	0.95;
    60	1	0.134312333	    0.001343123	    0	0	1	1	0	12/sqrt(3)	1	1.05	0.95;
    61	1	0.121267	    0.00121267	    0	0	1	1	0	12/sqrt(3)	1	1.05	0.95;
    62	1	0.098485667	    0.000984857	    0	0	1	1	0	12/sqrt(3)	1	1.05	0.95;
    63	1	0.211801667	    0.002118017	    0	0	1	1	0	12/sqrt(3)	1	1.05	0.95;
    64	1	0.078207667	    0.000782077	    0	0	1	1	0	12/sqrt(3)	1	1.05	0.95;
    65	1	0.029	        0.00029	        0	0	1	1	0	12/sqrt(3)	1	1.05	0.95;
    66	1	0.146945	    0.00146945	    0	0	1	1	0	12/sqrt(3)	1	1.05	0.95;
    67	1	0.166857	    0.00166857	    0	0	1	1	0	12/sqrt(3)	1	1.05	0.95;
    68	1	0.199800667	    0.001998007	    0	0	1	1	0	12/sqrt(3)	1	1.05	0.95;
    69	1	0.140727	    0.00140727	    0	0	1	1	0	12/sqrt(3)	1	1.05	0.95;
    70	1	0.066196	    0.00066196	    0	0	1	1	0	12/sqrt(3)	1	1.05	0.95;
    71	1	0.045955667	    0.000459557	    0	0	1	1	0	12/sqrt(3)	1	1.05	0.95;
    72	1	1.380666667	    0.013806667	    0	0	1	1	0	12/sqrt(3)	1	1.05	0.95;
    73	1	0.155333333	    0.001553333	    0	0	1	1	0	12/sqrt(3)	1	1.05	0.95;
    74	1	0.093	        0.00093	        0	0	1	1	0	12/sqrt(3)	1	1.05	0.95;
    75	1	0.031188	    0.00031188	    0	0	1	1	0	12/sqrt(3)	1	1.05	0.95;
    76	1	0.038333333	    0.000383333	    0	0	1	1	0	12/sqrt(3)	1	1.05	0.95;
    77	1	0.007829	    7.83E-05	    0	0	1	1	0	12/sqrt(3)	1	1.05	0.95;
    78	1	0.036480667	    0.000364807	    0	0	1	1	0	12/sqrt(3)	1	1.05	0.95;
    79	1	0.015247	    0.00015247	    0	0	1	1	0	12/sqrt(3)	1	1.05	0.95;
    80	1	0.005155	    5.16E-05	    0	0	1	1	0	12/sqrt(3)	1	1.05	0.95;
    81	1	0	            0	            0	0	1	1	0	12/sqrt(3)	1	1.05	0.95;
    82	1	0.01534	        0.0001534	    0	0	1	1	0	12/sqrt(3)	1	1.05	0.95;
    83	1	0.016132333	    0.000161323	    0	0	1	1	0	12/sqrt(3)	1	1.05	0.95;
    84	1	0.029594667	    0.000295947	    0	0	1	1	0	12/sqrt(3)	1	1.05	0.95;
    85	1	0.023695333	    0.000236953	    0	0	1	1	0	12/sqrt(3)	1	1.05	0.95;
    86	1	0.011241667	    0.000112417	    0	0	1	1	0	12/sqrt(3)	1	1.05	0.95;
    87	1	0.007293333	    7.29E-05	    0	0	1	1	0	12/sqrt(3)	1	1.05	0.95;
    88	1	0.004067333	    4.07E-05	    0	0	1	1	0	12/sqrt(3)	1	1.05	0.95;
    89	1	0.006327667	    6.33E-05	    0	0	1	1	0	12/sqrt(3)	1	1.05	0.95;
    90	1	0.014197667	    0.000141977	    0	0	1	1	0	12/sqrt(3)	1	1.05	0.95;
    91	1	0.010927	    0.00010927	    0	0	1	1	0	12/sqrt(3)	1	1.05	0.95;
    92	1	0.007091	    7.09E-05	    0	0	1	1	0	12/sqrt(3)	1	1.05	0.95;
    93	1	0.017479667	    0.000174797	    0	0	1	1	0	12/sqrt(3)	1	1.05	0.95;
    94	1	0.005546	    5.55E-05	    0	0	1	1	0	12/sqrt(3)	1	1.05	0.95;
    95	1	0.00582	        5.82E-05	    0	0	1	1	0	12/sqrt(3)	1	1.05	0.95;
    96	1	0.009427333	    9.43E-05	    0	0	1	1	0	12/sqrt(3)	1	1.05	0.95;
    97	1	0.002958667	    2.96E-05	    0	0	1	1	0	12/sqrt(3)	1	1.05	0.95;
    98	1	0.001629	    1.63E-05	    0	0	1	1	0	12/sqrt(3)	1	1.05	0.95;
    99	1	0.002087667	    2.09E-05	    0	0	1	1	0	12/sqrt(3)	1	1.05	0.95;
    100	1	0.004411333	    4.41E-05	    0	0	1	1	0	12/sqrt(3)	1	1.05	0.95;
    101	1	0.025572	    0.00025572	    0	0	1	1	0	12/sqrt(3)	1	1.05	0.95;
    102	1	0.015473333	    0.000154733	    0	0	1	1	0	12/sqrt(3)	1	1.05	0.95;
    103	1	0.005118	    5.12E-05	    0	0	1	1	0	12/sqrt(3)	1	1.05	0.95;
    104	1	0.004627	    4.63E-05	    0	0	1	1	0	12/sqrt(3)	1	1.05	0.95;
    105	1	0.054338667	    0.000543387	    0	0	1	1	0	12/sqrt(3)	1	1.05	0.95;
    106	1	0.002591	    2.59E-05	    0	0	1	1	0	12/sqrt(3)	1	1.05	0.95;
    107	1	0.073044333	    0.000730443	    0	0	1	1	0	12/sqrt(3)	1	1.05	0.95;
    108	1	0.049831	    0.00049831	    0	0	1	1	0	12/sqrt(3)	1	1.05	0.95;
    109	1	0.007702667	    7.70E-05	    0	0	1	1	0	12/sqrt(3)	1	1.05	0.95;
    110	1	0.025197	    0.00025197	    0	0	1	1	0	12/sqrt(3)	1	1.05	0.95;
    111	1	0.0088	        8.80E-05	    0	0	1	1	0	12/sqrt(3)	1	1.05	0.95;
    112	1	0.005495	    5.50E-05	    0	0	1	1	0	12/sqrt(3)	1	1.05	0.95;
    113	1	0.005070333	    5.07E-05	    0	0	1	1	0	12/sqrt(3)	1	1.05	0.95;
    114	1	-0.010666667	-0.000106667	0	0	1	1	0	12/sqrt(3)	1	1.05	0.95;
    115	1	0.003363667	    3.36E-05	    0	0	1	1	0	12/sqrt(3)	1	1.05	0.95;
    116	1	0.004221	    4.22E-05	    0	0	1	1	0	12/sqrt(3)	1	1.05	0.95;
    117	1	0.008039667	    8.04E-05	    0	0	1	1	0	12/sqrt(3)	1	1.05	0.95;
    118	1	0.007395333	    7.40E-05	    0	0	1	1	0	12/sqrt(3)	1	1.05	0.95;
    119	1	0.015860667	    0.000158607	    0	0	1	1	0	12/sqrt(3)	1	1.05	0.95;
    120	1	0.007576333	    7.58E-05	    0	0	1	1	0	12/sqrt(3)	1	1.05	0.95;
    121	1	0.007333333	    7.33E-05	    0	0	1	1	0	12/sqrt(3)	1	1.05	0.95;
    122	1	0.007114667	    7.11E-05	    0	0	1	1	0	12/sqrt(3)	1	1.05	0.95;
    123	1	-0.009	        -9.00E-05	    0	0	1	1	0	12/sqrt(3)	1	1.05	0.95;
    124	1	0.004520667	    4.52E-05	    0	0	1	1	0	12/sqrt(3)	1	1.05	0.95;
    125	1	0.008247333	    8.25E-05	    0	0	1	1	0	12/sqrt(3)	1	1.05	0.95;
    126	1	0.006649	    6.65E-05	    0	0	1	1	0	12/sqrt(3)	1	1.05	0.95;
    127	1	0.005395	    5.40E-05	    0	0	1	1	0	12/sqrt(3)	1	1.05	0.95;
    128	1	0.013666667	    0.000136667	    0	0	1	1	0	12/sqrt(3)	1	1.05	0.95;
    129	1	0.004836667	    4.84E-05	    0	0	1	1	0	12/sqrt(3)	1	1.05	0.95;
    130	1	0.000845333	    8.45E-06	    0	0	1	1	0	12/sqrt(3)	1	1.05	0.95;
    131	1	0.001126667	    1.13E-05	    0	0	1	1	0	12/sqrt(3)	1	1.05	0.95;
    132	1	0.012161333	    0.000121613	    0	0	1	1	0	12/sqrt(3)	1	1.05	0.95;
    133	1	0.013858333	    0.000138583	    0	0	1	1	0	12/sqrt(3)	1	1.05	0.95;
    134	1	0.003825667	    3.83E-05	    0	0	1	1	0	12/sqrt(3)	1	1.05	0.95;
    135	1	0.045719667	    0.000457197	    0	0	1	1	0	12/sqrt(3)	1	1.05	0.95;
    136	1	0.016049667	    0.000160497	    0	0	1	1	0	12/sqrt(3)	1	1.05	0.95;
    137	1	0.00561	        5.61E-05	    0	0	1	1	0	12/sqrt(3)	1	1.05	0.95;
    138	1	0.001440333	    1.44E-05	    0	0	1	1	0	12/sqrt(3)	1	1.05	0.95;
    139	1	0.006665333	    6.67E-05	    0	0	1	1	0	12/sqrt(3)	1	1.05	0.95;
    140	1	0.025101333	    0.000251013	    0	0	1	1	0	12/sqrt(3)	1	1.05	0.95;
    141	1	0.011075	    0.00011075	    0	0	1	1	0	12/sqrt(3)	1	1.05	0.95;
    142	1	0.011753	    0.00011753	    0	0	1	1	0	12/sqrt(3)	1	1.05	0.95;
    143	1	0.010121667	    0.000101217	    0	0	1	1	0	12/sqrt(3)	1	1.05	0.95;
    144	1	0.018765	    0.00018765	    0	0	1	1	0	12/sqrt(3)	1	1.05	0.95;
    145	1	0.026696333	    0.000266963	    0	0	1	1	0	12/sqrt(3)	1	1.05	0.95;
    146	1	0.004990667	    4.99E-05	    0	0	1	1	0	12/sqrt(3)	1	1.05	0.95;
    147	1	0.011445	    0.00011445	    0	0	1	1	0	12/sqrt(3)	1	1.05	0.95;
    148	1	0.012050333	    0.000120503	    0	0	1	1	0	12/sqrt(3)	1	1.05	0.95;
    149	1	0.002588	    2.59E-05	    0	0	1	1	0	12/sqrt(3)	1	1.05	0.95;
    150	1	0.018047	    0.00018047	    0	0	1	1	0	12/sqrt(3)	1	1.05	0.95;
    151	1	0.026814333	    0.000268143	    0	0	1	1	0	12/sqrt(3)	1	1.05	0.95;
    152	1	0.033141667	    0.000331417	    0	0	1	1	0	12/sqrt(3)	1	1.05	0.95;
    153	1	0	            0	            0	0	1	1	0	12/sqrt(3)	1	1.05	0.95;
    154	1	0.009970667	    9.97E-05	    0	0	1	1	0	12/sqrt(3)	1	1.05	0.95;
    155	1	0	            0	            0	0	1	1	0	12/sqrt(3)	1	1.05	0.95;
    156	1	0	            0	            0	0	1	1	0	12/sqrt(3)	1	1.05	0.95;
    157	1	0.005254667	    5.25E-05	    0	0	1	1	0	12/sqrt(3)	1	1.05	0.95;
    158	1	0	            0	            0	0	1	1	0	12/sqrt(3)	1	1.05	0.95;
    159	1	0.011949667	    0.000119497	    0	0	1	1	0	12/sqrt(3)	1	1.05	0.95;
    160	1	0	            0	            0	0	1	1	0	12/sqrt(3)	1	1.05	0.95;
    161	1	0.011854667	    0.000118547	    0	0	1	1	0	12/sqrt(3)	1	1.05	0.95;
    162	1	0.003305	    3.31E-05	    0	0	1	1	0	12/sqrt(3)	1	1.05	0.95;
    163	1	0.011937	    0.00011937	    0	0	1	1	0	12/sqrt(3)	1	1.05	0.95;
    164	1	8.20E-05	    8.20E-07	    0	0	1	1	0	12/sqrt(3)	1	1.05	0.95;
    165	1	0.007242667	    7.24E-05	    0	0	1	1	0	12/sqrt(3)	1	1.05	0.95;
    166	1	0.005184	    5.18E-05	    0	0	1	1	0	12/sqrt(3)	1	1.05	0.95;
    167	1	0.135419333	    0.001354193	    0	0	1	1	0	12/sqrt(3)	1	1.05	0.95;
    168	1	0	            0	            0	0	1	1	0	12/sqrt(3)	1	1.05	0.95;
    169	1	0.162	        0.00162	        0	0	1	1	0	12/sqrt(3)	1	1.05	0.95;
    170	1	0.065948333	    0.000659483	    0	0	1	1	0	12/sqrt(3)	1	1.05	0.95;
    171	1	0.082333333	    0.000823333	    0	0	1	1	0	12/sqrt(3)	1	1.05	0.95;
    172	1	0	            0	            0	0	1	1	0	12/sqrt(3)	1	1.05	0.95;
    173	1	-0.018666667	-0.000186667	0	0	1	1	0	12/sqrt(3)	1	1.05	0.95;
    174	1	-0.021333333	-0.000213333	0	0	1	1	0	12/sqrt(3)	1	1.05	0.95;
    175	1	-0.017666667	-0.000176667	0	0	1	1	0	12/sqrt(3)	1	1.05	0.95;
    176	1	-0.013333333	-0.000133333	0	0	1	1	0	12/sqrt(3)	1	1.05	0.95;
    177	1	-0.017333333	-0.000173333	0	0	1	1	0	12/sqrt(3)	1	1.05	0.95;
    178	1	0.006391333	    6.39E-05	    0	0	1	1	0	12/sqrt(3)	1	1.05	0.95;
    179	1	0	            0	            0	0	1	1	0	12/sqrt(3)	1	1.05	0.95;
    180	1	0.136340333	    0.001363403	    0	0	1	1	0	12/sqrt(3)	1	1.05	0.95;
    181	1	0.036841667	    0.000368417	    0	0	1	1	0	12/sqrt(3)	1	1.05	0.95;
    182	1	0.015101333	    0.000151013	    0	0	1	1	0	12/sqrt(3)	1	1.05	0.95;
    183	1	0.029852333	    0.000298523	    0	0	1	1	0	12/sqrt(3)	1	1.05	0.95;
    184	1	0.005266667	    5.27E-05	    0	0	1	1	0	12/sqrt(3)	1	1.05	0.95;
    185	1	0.005784	    5.78E-05	    0	0	1	1	0	12/sqrt(3)	1	1.05	0.95;
    186	1	0.006896667	    6.90E-05	    0	0	1	1	0	12/sqrt(3)	1	1.05	0.95;
    187	1	0.005666667	    5.67E-05	    0	0	1	1	0	12/sqrt(3)	1	1.05	0.95;
    188	1	0.004568	    4.57E-05	    0	0	1	1	0	12/sqrt(3)	1	1.05	0.95;
    189	1	0.007633333	    7.63E-05	    0	0	1	1	0	12/sqrt(3)	1	1.05	0.95;
    190	1	0.004266667	    4.27E-05	    0	0	1	1	0	12/sqrt(3)	1	1.05	0.95;
    191	1	0.004266667	    4.27E-05	    0	0	1	1	0	12/sqrt(3)	1	1.05	0.95;
    192	1	0.015233333	    0.000152333	    0	0	1	1	0	12/sqrt(3)	1	1.05	0.95;
    193	1	0.012366667	    0.000123667	    0	0	1	1	0	12/sqrt(3)	1	1.05	0.95;
    194	1	0.039332333	    0.000393323	    0	0	1	1	0	12/sqrt(3)	1	1.05	0.95;
    195	1	-0.000333333	-3.33E-06	    0	0	1	1	0	12/sqrt(3)	1	1.05	0.95;
    196	1	0.027	        0.00027	        0	0	1	1	0	12/sqrt(3)	1	1.05	0.95;
    197	1	0.00124	        1.24E-05	    0	0	1	1	0	12/sqrt(3)	1	1.05	0.95;
    198	1	0.007508667	    7.51E-05	    0	0	1	1	0	12/sqrt(3)	1	1.05	0.95;
    199	1	0.002425333	    2.43E-05	    0	0	1	1	0	12/sqrt(3)	1	1.05	0.95;
    200	1	0.003037	    3.04E-05	    0	0	1	1	0	12/sqrt(3)	1	1.05	0.95;
    201	1	0.013256	    0.00013256	    0	0	1	1	0	12/sqrt(3)	1	1.05	0.95;
    202	1	0	            0	            0	0	1	1	0	12/sqrt(3)	1	1.05	0.95;
    203	1	0.010335	    0.00010335	    0	0	1	1	0	12/sqrt(3)	1	1.05	0.95;
    204	1	0	            0	            0	0	1	1	0	12/sqrt(3)	1	1.05	0.95;
    205	1	0.012809667	    0.000128097	    0	0	1	1	0	12/sqrt(3)	1	1.05	0.95;
    206	1	0	            0	            0	0	1	1	0	12/sqrt(3)	1	1.05	0.95;
    207	1	0	            0	            0	0	1	1	0	12/sqrt(3)	1	1.05	0.95;
    208	1	0.006590667	    6.59E-05	    0	0	1	1	0	12/sqrt(3)	1	1.05	0.95;
    209	1	0.000454	    4.54E-06	    0	0	1	1	0	12/sqrt(3)	1	1.05	0.95;
    210	1	0.006897	    6.90E-05	    0	0	1	1	0	12/sqrt(3)	1	1.05	0.95;
    211	1	0.060333333	    0.000603333	    0	0	1	1	0	12/sqrt(3)	1	1.05	0.95;
    212	1	0.020666667	    0.000206667	    0	0	1	1	0	12/sqrt(3)	1	1.05	0.95;
    213	1	0.095626667	    0.000956267	    0	0	1	1	0	12/sqrt(3)	1	1.05	0.95;
    214	1	0.113460333	    0.001134603	    0	0	1	1	0	12/sqrt(3)	1	1.05	0.95;
    215	1	0.106623667	    0.001066237	    0	0	1	1	0	12/sqrt(3)	1	1.05	0.95;
    216	1	0.14432	        0.0014432	    0	0	1	1	0	12/sqrt(3)	1	1.05	0.95;
    217	1	0.003333333	    3.33E-05	    0	0	1	1	0	12/sqrt(3)	1	1.05	0.95;
    218	1	0.098631667	    0.000986317	    0	0	1	1	0	12/sqrt(3)	1	1.05	0.95;
    219	1	0.0118	        0.000118	    0	0	1	1	0	12/sqrt(3)	1	1.05	0.95;
    220	1	0.130495667	    0.001304957	    0	0	1	1	0	12/sqrt(3)	1	1.05	0.95;
    221	1	0.076030333	    0.000760303	    0	0	1	1	0	12/sqrt(3)	1	1.05	0.95;
    222	1	0	            0	            0	0	1	1	0	12/sqrt(3)	1	1.05	0.95;
    223	1	0.014333333     0.000143333	    0	0	1	1	0	12/sqrt(3)	1	1.05	0.95;
    224	1	0.054966667     0.000549667	    0	0	1	1	0	12/sqrt(3)	1	1.05	0.95;
    225	1	0.130192333     0.001301923	    0	0	1	1	0	12/sqrt(3)	1	1.05	0.95;
    226	1	0.091	        0.00091	        0	0	1	1	0	12/sqrt(3)	1	1.05	0.95;
    227	1	0.053666667	    0.000536667	    0	0	1	1	0	12/sqrt(3)	1	1.05	0.95;
    228	1	0.222333333	    0.002223333	    0	0	1	1	0	12/sqrt(3)	1	1.05	0.95;
    229	1	0.116096667	    0.001160967	    0	0	1	1	0	12/sqrt(3)	1	1.05	0.95;
    230	1	0.194085333	    0.001940853	    0	0	1	1	0	12/sqrt(3)	1	1.05	0.95;
    231	1	0.063845667	    0.000638457	    0	0	1	1	0	12/sqrt(3)	1	1.05	0.95;
    232	1	0.113823	    0.00113823	    0	0	1	1	0	12/sqrt(3)	1	1.05	0.95;
    233	1	0.017066667	    0.000170667	    0	0	1	1	0	12/sqrt(3)	1	1.05	0.95;
    234	1	0	            0	            0	0	1	1	0	12/sqrt(3)	1	1.05	0.95;
    235	1	0.074625333	    0.000746253	    0	0	1	1	0	12/sqrt(3)	1	1.05	0.95;
    236	1	0.056679333	    0.000566793	    0	0	1	1	0	12/sqrt(3)	1	1.05	0.95;
    237	1	0.260666667	    0.002606667	    0	0	1	1	0	12/sqrt(3)	1	1.05	0.95;
    238	1	0.224263333	    0.002242633	    0	0	1	1	0	12/sqrt(3)	1	1.05	0.95;
    239	1	0.110828667	    0.001108287	    0	0	1	1	0	12/sqrt(3)	1	1.05	0.95;
    240	1	0.10466	        0.0010466	    0	0	1	1	0	12/sqrt(3)	1	1.05	0.95;
    241	1	0.072500333	    0.000725003	    0	0	1	1	0	12/sqrt(3)	1	1.05	0.95;
    242	1	0.109942	    0.00109942	    0	0	1	1	0	12/sqrt(3)	1	1.05	0.95;
    243	1	0.098678333	    0.000986783	    0	0	1	1	0	12/sqrt(3)	1	1.05	0.95;
    244	1	0	            0	            0	0	1	1	0	12/sqrt(3)	1	1.05	0.95;
    245	1	0.080868	    0.00080868	    0	0	1	1	0	12/sqrt(3)	1	1.05	0.95;
    246	1	0.047841	    0.00047841	    0	0	1	1	0	12/sqrt(3)	1	1.05	0.95;
    247	1	0.105238	    0.00105238	    0	0	1	1	0	12/sqrt(3)	1	1.05	0.95;
    248	1	0.011725	    0.00011725	    0	0	1	1	0	12/sqrt(3)	1	1.05	0.95;
    249	1	0.115618333	    0.001156183	    0	0	1	1	0	12/sqrt(3)	1	1.05	0.95;
    250	1	0.072048	    0.00072048	    0	0	1	1	0	12/sqrt(3)	1	1.05	0.95;
    251	1	0.082059	    0.00082059	    0	0	1	1	0	12/sqrt(3)	1	1.05	0.95;
    252	1	0.118145	    0.00118145	    0	0	1	1	0	12/sqrt(3)	1	1.05	0.95;
    253	1	0.066252667	    0.000662527	    0	0	1	1	0	12/sqrt(3)	1	1.05	0.95;
    254	1	0.059445333	    0.000594453	    0	0	1	1	0	12/sqrt(3)	1	1.05	0.95;
    255	1	0.162862	    0.00162862	    0	0	1	1	0	12/sqrt(3)	1	1.05	0.95;
    256	1	0.158988333	    0.001589883	    0	0	1	1	0	12/sqrt(3)	1	1.05	0.95;
    257	1	0.1847	        0.001847	    0	0	1	1	0	12/sqrt(3)	1	1.05	0.95;
    258	1	0.106654667	    0.001066547	    0	0	1	1	0	12/sqrt(3)	1	1.05	0.95;
    259	1	0.144988667	    0.001449887	    0	0	1	1	0	12/sqrt(3)	1	1.05	0.95;
    260	1	0.127948667	    0.001279487	    0	0	1	1	0	12/sqrt(3)	1	1.05	0.95;
    261	1	0.120644	    0.00120644	    0	0	1	1	0	12/sqrt(3)	1	1.05	0.95;
    262	1	0.226364	    0.00226364	    0	0	1	1	0	12/sqrt(3)	1	1.05	0.95;
    263	1	0.055053	    0.00055053	    0	0	1	1	0	12/sqrt(3)	1	1.05	0.95;
    264	1	0.053142333	    0.000531423	    0	0	1	1	0	12/sqrt(3)	1	1.05	0.95;
    265	1	0	            0	            0	0	1	1	0	12/sqrt(3)	1	1.05	0.95;
    266	1	0	            0	            0	0	1	1	0	12/sqrt(3)	1	1.05	0.95;
    267	1	0	            0	            0	0	1	1	0	12/sqrt(3)	1	1.05	0.95;
    268	1	0.006295667	    6.30E-05	    0	0	1	1	0	12/sqrt(3)	1	1.05	0.95;
    269	1	0.028836667	    0.000288367	    0	0	1	1	0	12/sqrt(3)	1	1.05	0.95;
    270	1	0.01194	        0.0001194	    0	0	1	1	0	12/sqrt(3)	1	1.05	0.95;
    271	1	0.009293	    9.29E-05	    0	0	1	1	0	12/sqrt(3)	1	1.05	0.95;
    272	1	0.00505     	5.05E-05	    0	0	1	1	0	12/sqrt(3)	1	1.05	0.95;
    273	1	0	            0	            0	0	1	1	0	12/sqrt(3)	1	1.05	0.95;
    274	1	0.00252	        2.52E-05	    0	0	1	1	0	12/sqrt(3)	1	1.05	0.95;
    275	1	0	            0	            0	0	1	1	0	12/sqrt(3)	1	1.05	0.95;
    276	1	0	            0	            0	0	1	1	0	12/sqrt(3)	1	1.05	0.95;
    277	1	0	            0	            0	0	1	1	0	12/sqrt(3)	1	1.05	0.95;
    278	1	0	            0	            0	0	1	1	0	12/sqrt(3)	1	1.05	0.95;
    279	1	0.008799	    8.80E-05	    0	0	1	1	0	12/sqrt(3)	1	1.05	0.95;
    280	1	0	            0	            0	0	1	1	0	12/sqrt(3)	1	1.05	0.95;
    281	1	0	            0	            0	0	1	1	0	12/sqrt(3)	1	1.05	0.95;
    282	1	0	            0	            0	0	1	1	0	12/sqrt(3)	1	1.05	0.95;
    283	1	0.007771	    7.77E-05	    0	0	1	1	0	12/sqrt(3)	1	1.05	0.95;
    284	1	0.009201667	    9.20E-05	    0	0	1	1	0	12/sqrt(3)	1	1.05	0.95;
    285	1	0.013336333	    0.000133363	    0	0	1	1	0	12/sqrt(3)	1	1.05	0.95;
    286	1	0	            0	            0	0	1	1	0	12/sqrt(3)	1	1.05	0.95;
    287	1	0.017973667	    0.000179737	    0	0	1	1	0	12/sqrt(3)	1	1.05	0.95;
    288	1	0.012223	    0.00012223	    0	0	1	1	0	12/sqrt(3)	1	1.05	0.95;
    289	1	0.044945333	    0.000449453	    0	0	1	1	0	12/sqrt(3)	1	1.05	0.95;
    290	1	0.014563333	    0.000145633	    0	0	1	1	0	12/sqrt(3)	1	1.05	0.95;
    291	1	0.003924333	    3.92E-05	    0	0	1	1	0	12/sqrt(3)	1	1.05	0.95;
    292	1	0.008390667	    8.39E-05	    0	0	1	1	0	12/sqrt(3)	1	1.05	0.95;
    293	1	0.006506333	    6.51E-05	    0	0	1	1	0	12/sqrt(3)	1	1.05	0.95;
    294	1	0	            0	            0	0	1	1	0	12/sqrt(3)	1	1.05	0.95;
    295	1	0.009069333	    9.07E-05	    0	0	1	1	0	12/sqrt(3)	1	1.05	0.95;
    296	1	0	            0	            0	0	1	1	0	12/sqrt(3)	1	1.05	0.95;
    297	1	0.00391	        3.91E-05	    0	0	1	1	0	12/sqrt(3)	1	1.05	0.95;
    298	1	0	            0	            0	0	1	1	0	12/sqrt(3)	1	1.05	0.95;
    299	1	0.003139	    3.14E-05	    0	0	1	1	0	12/sqrt(3)	1	1.05	0.95;
    300	1	0.009317667	    9.32E-05	    0	0	1	1	0	12/sqrt(3)	1	1.05	0.95;
    301	1	0.015877333	    0.000158773	    0	0	1	1	0	12/sqrt(3)	1	1.05	0.95;
    302	1	0.001993667	    1.99E-05	    0	0	1	1	0	12/sqrt(3)	1	1.05	0.95;
    303	1	0	            0	            0	0	1	1	0	12/sqrt(3)	1	1.05	0.95;
    304	1	0.003327333	    3.33E-05	    0	0	1	1	0	12/sqrt(3)	1	1.05	0.95;
    305	1	0.004928667	    4.93E-05	    0	0	1	1	0	12/sqrt(3)	1	1.05	0.95;
    306	1	0.0226	        0.000226	    0	0	1	1	0	12/sqrt(3)	1	1.05	0.95;
    307	1	0.01436	        0.0001436	    0	0	1	1	0	12/sqrt(3)	1	1.05	0.95;
    308	1	0.007531333	    7.53E-05	    0	0	1	1	0	12/sqrt(3)	1	1.05	0.95;
    309	1	0.005282333	    5.28E-05	    0	0	1	1	0	12/sqrt(3)	1	1.05	0.95;
    310	1	0.002	        2.00E-05	    0	0	1	1	0	12/sqrt(3)	1	1.05	0.95;
    311	1	0.000708667	    7.09E-06	    0	0	1	1	0	12/sqrt(3)	1	1.05	0.95;
    312	1	0.004443667	    4.44E-05	    0	0	1	1	0	12/sqrt(3)	1	1.05	0.95;
    313	1	0.006261	    6.26E-05	    0	0	1	1	0	12/sqrt(3)	1	1.05	0.95;
    314	1	0.006013333	    6.01E-05	    0	0	1	1	0	12/sqrt(3)	1	1.05	0.95;
    315	1	0.012509667	    0.000125097	    0	0	1	1	0	12/sqrt(3)	1	1.05	0.95;
    316	1	0.012928333	    0.000129283	    0	0	1	1	0	12/sqrt(3)	1	1.05	0.95;
    317	1	0.020893	    0.00020893	    0	0	1	1	0	12/sqrt(3)	1	1.05	0.95;
    318	1	0.020274667	    0.000202747	    0	0	1	1	0	12/sqrt(3)	1	1.05	0.95;
    319	1	0.013658	    0.00013658	    0	0	1	1	0	12/sqrt(3)	1	1.05	0.95;
    320	1	0.016796333	    0.000167963	    0	0	1	1	0	12/sqrt(3)	1	1.05	0.95;
    321	1	0.028686333	    0.000286863	    0	0	1	1	0	12/sqrt(3)	1	1.05	0.95;
    322	1	0.011297333	    0.000112973	    0	0	1	1	0	12/sqrt(3)	1	1.05	0.95;
    323	1	0.011378667	    0.000113787	    0	0	1	1	0	12/sqrt(3)	1	1.05	0.95;
    324	1	0.010821	    0.00010821	    0	0	1	1	0	12/sqrt(3)	1	1.05	0.95;
    325	1	0.00532	        5.32E-05	    0	0	1	1	0	12/sqrt(3)	1	1.05	0.95;
    326	1	0.003466333	    3.47E-05	    0	0	1	1	0	12/sqrt(3)	1	1.05	0.95;
    327	1	0.011849667	    0.000118497	    0	0	1	1	0	12/sqrt(3)	1	1.05	0.95;
    328	1	0.008447	    8.45E-05	    0	0	1	1	0	12/sqrt(3)	1	1.05	0.95;
    329	1	0.020114	    0.00020114	    0	0	1	1	0	12/sqrt(3)	1	1.05	0.95;
    330	1	0.005993	    5.99E-05	    0	0	1	1	0	12/sqrt(3)	1	1.05	0.95;
    331	1	0.008617333	    8.62E-05	    0	0	1	1	0	12/sqrt(3)	1	1.05	0.95;
    332	1	0.019481333	    0.000194813	    0	0	1	1	0	12/sqrt(3)	1	1.05	0.95;
    333	1	0.009754333	    9.75E-05	    0	0	1	1	0	12/sqrt(3)	1	1.05	0.95;
    334	1	0	            0	            0	0	1	1	0	12/sqrt(3)	1	1.05	0.95;
    335	1	0.020272333	    0.000202723	    0	0	1	1	0	12/sqrt(3)	1	1.05	0.95;
    336	1	0	            0	            0	0	1	1	0	12/sqrt(3)	1	1.05	0.95;
    337	1	0.016288333	    0.000162883	    0	0	1	1	0	12/sqrt(3)	1	1.05	0.95;
    338	1	0.008819	    8.82E-05	    0	0	1	1	0	12/sqrt(3)	1	1.05	0.95;
    339	1	0	            0	            0	0	1	1	0	12/sqrt(3)	1	1.05	0.95;
    340	1	0	            0	            0	0	1	1	0	12/sqrt(3)	1	1.05	0.95;
    341	1	0	            0	            0	0	1	1	0	12/sqrt(3)	1	1.05	0.95;
    342	1	0.003860667	    3.86E-05	    0	0	1	1	0	12/sqrt(3)	1	1.05	0.95;
    343	1	0.017792	    0.00017792	    0	0	1	1	0	12/sqrt(3)	1	1.05	0.95;
    344	1	0	            0	            0	0	1	1	0	12/sqrt(3)	1	1.05	0.95;
    345	1	0	            0	            0	0	1	1	0	12/sqrt(3)	1	1.05	0.95;
    346	1	0.009771667	    9.77E-05	    0	0	1	1	0	12/sqrt(3)	1	1.05	0.95;
    347	1	0.010830667	    0.000108307	    0	0	1	1	0	12/sqrt(3)	1	1.05	0.95;
    348	1	0.003699333	    3.70E-05	    0	0	1	1	0	12/sqrt(3)	1	1.05	0.95;
    349	1	0.007066333	    7.07E-05	    0	0	1	1	0	12/sqrt(3)	1	1.05	0.95;
    350	1	0.012811	    0.00012811	    0	0	1	1	0	12/sqrt(3)	1	1.05	0.95;
    351	1	0.005175	    5.18E-05	    0	0	1	1	0	12/sqrt(3)	1	1.05	0.95;
    352	1	0.033412667	    0.000334127	    0	0	1	1	0	12/sqrt(3)	1	1.05	0.95;
    353	1	0.019415667	    0.000194157	    0	0	1	1	0	12/sqrt(3)	1	1.05	0.95;
    354	1	0.073333333	    0.000733333	    0	0	1	1	0	12/sqrt(3)	1	1.05	0.95;
    355	1	0.00037	        3.70E-06	    0	0	1	1	0	12/sqrt(3)	1	1.05	0.95;
    356	1	0.003691	    3.69E-05	    0	0	1	1	0	12/sqrt(3)	1	1.05	0.95;
    357	1	0	            0	            0	0	1	1	0	12/sqrt(3)	1	1.05	0.95;
    358	1	0.009583333	    9.58E-05	    0	0	1	1	0	12/sqrt(3)	1	1.05	0.95;
    359	1	0	            0	            0	0	1	1	0	12/sqrt(3)	1	1.05	0.95;
    360	1	0.025804	    0.00025804	    0	0	1	1	0	12/sqrt(3)	1	1.05	0.95;
    361	1	0.01332	        0.0001332	    0	0	1	1	0	12/sqrt(3)	1	1.05	0.95;
    362	1	0	            0	            0	0	1	1	0	12/sqrt(3)	1	1.05	0.95;
    363	1	0	            0	            0	0	1	1	0	12/sqrt(3)	1	1.05	0.95;
    364	1	0.004589	    4.59E-05	    0	0	1	1	0	12/sqrt(3)	1	1.05	0.95;
    365	1	0.008535333	    8.54E-05	    0	0	1	1	0	12/sqrt(3)	1	1.05	0.95;
    366	1	0	            0	            0	0	1	1	0	12/sqrt(3)	1	1.05	0.95;
    367	1	0.014820667     0.000148207	    0	0	1	1	0	12/sqrt(3)	1	1.05	0.95;
    368	1	0.010225333     0.000102253	    0	0	1	1	0	12/sqrt(3)	1	1.05	0.95;
    369	1	-0.010066667	-0.000100667	0	0	1	1	0	12/sqrt(3)	1	1.05	0.95;
    370	1	0.001	        1.00E-05	    0	0	1	1	0	12/sqrt(3)	1	1.05	0.95;
    371	1	0.001621333	    1.62E-05	    0	0	1	1	0	12/sqrt(3)	1	1.05	0.95;
    372	1	-0.004666667	-4.67E-05	    0	0	1	1	0	12/sqrt(3)	1	1.05	0.95;
    373	1	0.008930333	    8.93E-05	    0	0	1	1	0	12/sqrt(3)	1	1.05	0.95;
    374	1	0.011057	    0.00011057	    0	0	1	1	0	12/sqrt(3)	1	1.05	0.95;
    375	1	0.010319	    0.00010319	    0	0	1	1	0	12/sqrt(3)	1	1.05	0.95;
    376	1	0.005293333	    5.29E-05	    0	0	1	1	0	12/sqrt(3)	1	1.05	0.95;
    377	1	-0.014	        -0.00014	    0	0	1	1	0	12/sqrt(3)	1	1.05	0.95;
    378	1	0.005347333	    5.35E-05	    0	0	1	1	0	12/sqrt(3)	1	1.05	0.95;
    379	1	0.012810333	    0.000128103	    0	0	1	1	0	12/sqrt(3)	1	1.05	0.95;
    380	1	0.004825	    4.83E-05	    0	0	1	1	0	12/sqrt(3)	1	1.05	0.95;
    381	1	-0.004666667	-4.67E-05	    0	0	1	1	0	12/sqrt(3)	1	1.05	0.95;
    382	1	0.000666667	    6.67E-06	    0	0	1	1	0	12/sqrt(3)	1	1.05	0.95;
    383	1	0	            0	            0	0	1	1	0	12/sqrt(3)	1	1.05	0.95;
    384	1	0	            0	            0	0	1	1	0	12/sqrt(3)	1	1.05	0.95;
    385	1	0	            0	            0	0	1	1	0	12/sqrt(3)	1	1.05	0.95;
    386	1	0.020184	    0.00020184	    0	0	1	1	0	12/sqrt(3)	1	1.05	0.95;
    387	1	0	            0	            0	0	1	1	0	12/sqrt(3)	1	1.05	0.95;
    388	1	7.00E-05	    7.00E-07	    0	0	1	1	0	12/sqrt(3)	1	1.05	0.95;
    389	1	0	            0	            0	0	1	1	0	12/sqrt(3)	1	1.05	0.95;
    390	1	0.006749333	    6.75E-05	    0	0	1	1	0	12/sqrt(3)	1	1.05	0.95;
    391	1	0.010997333	    0.000109973	    0	0	1	1	0	12/sqrt(3)	1	1.05	0.95;