function mpc = case_ACTIVSg200
%CASE_ACTIVSG200  Synthetic Illinois 200-bus power system model.
%
%   This is an entirely synthetic 200 bus case, geographically situated
%   in the central part of the US state of Illinois. The case is
%   designed with a 230 and 115 kV transmission network to serve
%   a load that roughly mimics the actual population of its geographic
%   footprint. The synthetic transmission system was designed by
%   algorithms described in [1] to be statistically similar to actual
%   transmission system models but without modeling any actual lines.
%
%   When publishing results based on this data, please cite:
%
%   [1] A.B. Birchfield, T. Xu, K.M. Gegner, K.S. Shetye, T.J. Overbye,
%       "Grid Structural Characteristics as Validation Criteria for
%       Synthetic Networks," IEEE Transactions on Power Systems, 2017.
%
%   This is a synthetic power system model that does not represent the
%   actual grid. It was developed as part of the US ARPA-E GRID DATA
%   research project and contains no CEII.
%
%   One-line diagrams and other data formats available at:
%       https://electricgrids.engr.tamu.edu
%
%   May 16, 2017

%   Created from ACTIV_SG_200.pwb, saved by
%   PowerWorld Simulator, version 20 Beta, build date May 19, 2017,
%   then by MATPOWER 6.

%   MATPOWER
%   Copyright (c) 2017 by A.B. Birchfield, T. Xu, K.M. Gegner, K.S. Shetye,
%   and T.J. Overbye
%   Licensed under the Creative Commons Attribution 4.0 International license,
%   http://creativecommons.org/licenses/by/4.0/

%% MATPOWER Case Format : Version 2
mpc.version = '2';

%%-----  Power Flow Data  -----%%
%% system MVA base
mpc.baseMVA = 100;

%% bus data
%	bus_i	type	Pd	Qd	Gs	Bs	area	Vm	Va	baseKV	zone	Vmax	Vmin	lam_P	lam_Q	mu_Vmax	mu_Vmin
mpc.bus = [
	1	1	0	0	0	0	1	1.0191524	-7.085196	115	2	1.1	0.9	6.8700	0.0000	0.0000	0.0000;
	2	1	7.39	2.1	0	0	1	1.0190346	-7.098018	115	2	1.1	0.9	6.8700	0.0000	0.0000	0.0000;
	3	1	0	0	0	0	1	1.0300537	-10.029102	115	4	1.1	0.9	6.8700	0.0000	0.0000	0.0000;
	4	1	1.7	0.48	0	0	1	1.0300287	-10.031977	115	4	1.1	0.9	6.8700	0.0000	0.0000	0.0000;
	5	1	0	0	0	0	1	1.0372733	-3.546274	115	6	1.1	0.9	6.8700	0.0000	0.0000	0.0000;
	6	1	7.95	2.26	0	0	1	1.0371472	-3.559563	115	6	1.1	0.9	6.8700	0.0000	0.0000	0.0000;
	7	1	0	0	0	0	1	1.0130981	-7.793195	115	2	1.1	0.9	6.8700	0.0000	0.0000	0.0000;
	8	1	23.74	6.77	0	0	1	1.0127362	-7.833073	115	2	1.1	0.9	6.8700	0.0000	0.0000	0.0000;
	9	1	0	0	0	0	1	1.0157742	-7.471766	115	2	1.1	0.9	6.8700	0.0000	0.0000	0.0000;
	10	1	42.68	12.16	0	0	1	1.0150515	-7.561889	115	2	1.1	0.9	6.8700	0.0000	0.0000	0.0000;
	11	1	0	0	0	0	1	1.0464424	-7.604683	115	4	1.1	0.9	6.8700	0.0000	0.0000	0.0000;
	12	1	0.3	0.09	0	0	1	1.046438	-7.60522	115	4	1.1	0.9	6.8700	0.0000	0.0000	0.0000;
	13	1	2.52	0.72	0	0	1	1.0464027	-7.609214	115	4	1.1	0.9	6.8700	0.0000	0.0000	0.0000;
	14	1	0	0	0	0	1	1.044617	-6.245575	230	4	1.1	0.9	6.8700	0.0000	0.0000	0.0000;
	15	1	0	0	0	30	1	1.0491072	-7.105388	115	4	1.1	0.9	6.8700	0.0000	0.0000	0.0000;
	16	1	44.76	12.76	0	0	1	1.048481	-7.176325	115	4	1.1	0.9	6.8700	0.0000	0.0000	0.0000;
	17	1	0	0	0	0	1	1.0247944	-8.305174	115	4	1.1	0.9	6.8700	0.0000	0.0000	0.0000;
	18	1	0.71	0.2	0	0	1	1.0247831	-8.306647	115	4	1.1	0.9	6.8700	0.0000	0.0000	0.0000;
	19	1	0.77	0.22	0	0	1	1.0247839	-8.306404	115	4	1.1	0.9	6.8700	0.0000	0.0000	0.0000;
	20	1	1.13	0.32	0	0	1	1.024777	-8.307127	115	4	1.1	0.9	6.8700	0.0000	0.0000	0.0000;
	21	1	4.61	1.31	0	0	1	1.024716	-8.31463	115	4	1.1	0.9	6.8700	0.0000	0.0000	0.0000;
	22	1	0	0	0	0	1	1.0446532	-8.021549	115	4	1.1	0.9	6.8700	0.0000	0.0000	0.0000;
	23	1	1.41	0.4	0	0	1	1.0446325	-8.023805	115	4	1.1	0.9	6.8700	0.0000	0.0000	0.0000;
	24	1	2.4	0.68	0	0	1	1.0446174	-8.025162	115	4	1.1	0.9	6.8700	0.0000	0.0000	0.0000;
	25	1	0	0	0	0	1	1.0425139	-4.003351	115	6	1.1	0.9	6.8700	0.0000	0.0000	0.0000;
	26	1	1.35	0.39	0	0	1	1.0424947	-4.005417	115	6	1.1	0.9	6.8700	0.0000	0.0000	0.0000;
	27	1	0	0	0	0	1	1.0457273	-7.975065	115	4	1.1	0.9	6.8700	0.0000	0.0000	0.0000;
	28	1	2.33	0.67	0	0	1	1.045689	-7.979706	115	4	1.1	0.9	6.8700	0.0000	0.0000	0.0000;
	29	1	0	0	0	0	1	1.0181686	-7.054086	115	2	1.1	0.9	6.8700	0.0000	0.0000	0.0000;
	30	1	59.09	16.84	0	0	1	1.0172458	-7.149969	115	2	1.1	0.9	6.8700	0.0000	0.0000	0.0000;
	31	1	0	0	0	0	1	1.0215416	-5.832082	115	7	1.1	0.9	6.8700	0.0000	0.0000	0.0000;
	32	1	0.51	0.15	0	0	1	1.0215327	-5.833121	115	7	1.1	0.9	6.8700	0.0000	0.0000	0.0000;
	33	1	6.44	1.84	0	0	1	1.0214429	-5.844415	115	7	1.1	0.9	6.8700	0.0000	0.0000	0.0000;
	34	1	0	0	0	0	1	1.0327185	-9.326455	115	4	1.1	0.9	6.8700	0.0000	0.0000	0.0000;
	35	1	20.76	5.92	0	0	1	1.032392	-9.365615	115	4	1.1	0.9	6.8700	0.0000	0.0000	0.0000;
	36	1	0	0	0	0	1	1.0280697	-6.178381	115	7	1.1	0.9	6.8700	0.0000	0.0000	0.0000;
	37	1	3.57	1.02	0	0	1	1.0280176	-6.18452	115	7	1.1	0.9	6.8700	0.0000	0.0000	0.0000;
	38	1	29.81	8.5	0	0	1	1.0275847	-6.23205	115	7	1.1	0.9	6.8700	0.0000	0.0000	0.0000;
	39	1	7.41	2.11	0	0	1	1.024585	-10.493094	115	4	1.1	0.9	6.8700	0.0000	0.0000	0.0000;
	40	1	2.04	0.58	0	0	1	1.0245573	-10.496396	115	4	1.1	0.9	6.8700	0.0000	0.0000	0.0000;
	41	1	38.34	10.93	0	0	1	1.0462799	-7.96017	115	5	1.1	0.9	6.8700	0.0000	0.0000	0.0000;
	42	1	10.62	3.03	0	0	1	1.0301465	-11.069993	115	4	1.1	0.9	6.8700	0.0000	0.0000	0.0000;
	43	1	2.09	0.59	0	0	1	1.017201	-6.400585	115	2	1.1	0.9	6.8700	0.0000	0.0000	0.0000;
	44	1	4.15	1.18	0	0	1	1.0280137	-10.39886	115	4	1.1	0.9	6.8700	0.0000	0.0000	0.0000;
	45	1	0	0	0	0	1	1.0384367	-2.068677	230	7	1.1	0.9	6.8700	0.0000	0.0000	0.0000;
	46	1	6.34	1.81	0	0	1	1.0378124	-2.889424	115	7	1.1	0.9	6.8700	0.0000	0.0000	0.0000;
	47	1	1.54	0.44	0	0	1	1.0392618	-8.19532	115	4	1.1	0.9	6.8700	0.0000	0.0000	0.0000;
	48	1	1.82	0.52	0	0	1	1.0351468	-4.17501	115	6	1.1	0.9	6.8700	0.0000	0.0000	0.0000;
	49	2	0	0	0	0	1	1.04	-3.80269	13.8	6	1.1	0.9	6.8700	0.0000	0.0000	0.0000;
	50	2	0	0	0	0	1	1.04	-3.896095	13.8	6	1.1	0.9	6.8700	0.0000	0.0000	0.0000;
	51	2	0	0	0	0	1	1.04	-3.742621	13.8	6	1.1	0.9	6.8700	0.0000	0.0000	0.0000;
	52	2	0	0	0	0	1	1.04	-3.914588	13.8	6	1.1	0.9	6.8700	0.0000	0.0000	0.0000;
	53	2	0	0	0	0	1	1.04	-3.349326	13.8	6	1.1	0.9	6.8700	0.0000	0.0000	0.0000;
	54	1	2.66	0.76	0	0	1	1.0375005	-8.493516	115	4	1.1	0.9	6.8700	0.0000	0.0000	0.0000;
	55	1	0	0	0	0	1	1.0370718	-2.298751	230	7	1.1	0.9	6.8700	0.0000	0.0000	0.0000;
	56	1	1.31	0.37	0	0	1	1.0364415	-2.736582	115	7	1.1	0.9	6.8700	0.0000	0.0000	0.0000;
	57	1	2.82	0.8	0	0	1	1.0281336	-10.449132	115	4	1.1	0.9	6.8700	0.0000	0.0000	0.0000;
	58	1	4.23	1.21	0	0	1	1.0349414	-6.030088	115	7	1.1	0.9	6.8700	0.0000	0.0000	0.0000;
	59	1	4.73	1.35	0	0	1	1.0187885	-7.693149	115	2	1.1	0.9	6.8700	0.0000	0.0000	0.0000;
	60	1	3.8	1.08	0	0	1	1.0291097	-6.554687	115	2	1.1	0.9	6.8700	0.0000	0.0000	0.0000;
	61	1	20.55	5.86	0	0	1	1.0351527	-3.102719	115	7	1.1	0.9	6.8700	0.0000	0.0000	0.0000;
	62	1	21.41	6.1	0	0	1	1.0267194	-11.318015	115	4	1.1	0.9	6.8700	0.0000	0.0000	0.0000;
	63	1	7.98	2.27	0	0	1	1.0437777	-8.233032	115	4	1.1	0.9	6.8700	0.0000	0.0000	0.0000;
	64	1	0	0	0	0	1	1.0415417	-2.532761	115	6	1.1	0.9	6.8700	0.0000	0.0000	0.0000;
	65	2	0	0	0	0	1	1.04	2.119	13.8	6	1.1	0.9	6.8700	0.0000	0.0000	0.0000;
	66	1	0	0	0	0	1	1.0410702	-7.846441	115	4	1.1	0.9	6.8700	0.0000	0.0000	0.0000;
	67	2	0	0	0	0	1	1.0405589	-7.73215	13.8	4	1.1	0.9	6.8700	0.0000	0.0000	0.0000;
	68	2	0	0	0	0	1	1.04	-6.669196	13.8	4	1.1	0.9	6.8700	0.0000	0.0000	0.0000;
	69	2	0	0	0	0	1	1.04	-7.421629	13.8	4	1.1	0.9	6.8700	0.0000	0.0000	0.0000;
	70	2	0	0	0	0	1	1.04	-6.959081	13.8	4	1.1	0.9	6.8700	0.0000	0.0000	0.0000;
	71	2	0	0	0	0	1	1.04	-7.48165	13.8	4	1.1	0.9	6.8700	0.0000	0.0000	0.0000;
	72	2	0	0	0	0	1	1.04	-7.512144	13.8	4	1.1	0.9	6.8700	0.0000	0.0000	0.0000;
	73	2	0	0	0	0	1	1.04	-7.193069	13.8	4	1.1	0.9	6.8700	0.0000	0.0000	0.0000;
	74	1	18.76	5.35	0	0	1	1.0294816	-5.12964	115	6	1.1	0.9	6.8700	0.0000	0.0000	0.0000;
	75	1	3.6	1.03	0	0	1	1.028977	-6.116296	115	2	1.1	0.9	6.8700	0.0000	0.0000	0.0000;
	76	2	0	0	0	0	1	1.04	-5.641354	13.8	2	1.1	0.9	6.8700	0.0000	0.0000	0.0000;
	77	2	0	0	0	0	1	1.04	-5.292751	13.8	2	1.1	0.9	6.8700	0.0000	0.0000	0.0000;
	78	2	0	0	0	0	1	1.028977	-6.116296	13.8	2	1.1	0.9	6.8700	0.0000	0.0000	0.0000;
	79	2	0	0	0	0	1	1.028977	-6.116296	13.8	2	1.1	0.9	6.8700	0.0000	0.0000	0.0000;
	80	1	1.48	0.42	0	0	1	1.0475622	-7.25821	115	5	1.1	0.9	6.8700	0.0000	0.0000	0.0000;
	81	1	0	0	0	0	1	1.038152	-3.896426	230	6	1.1	0.9	6.8700	0.0000	0.0000	0.0000;
	82	1	7.6	2.17	0	0	1	1.0353106	-4.72467	115	6	1.1	0.9	6.8700	0.0000	0.0000	0.0000;
	83	1	3.14	0.89	0	0	1	1.0305903	-5.147124	115	7	1.1	0.9	6.8700	0.0000	0.0000	0.0000;
	84	1	3.75	1.07	0	0	1	1.0192369	-5.836735	115	2	1.1	0.9	6.8700	0.0000	0.0000	0.0000;
	85	1	4.83	1.38	0	0	1	1.0241032	-9.891841	115	4	1.1	0.9	6.8700	0.0000	0.0000	0.0000;
	86	1	8.25	2.35	0	0	1	1.0142895	-7.633369	115	2	1.1	0.9	6.8700	0.0000	0.0000	0.0000;
	87	1	0	0	0	0	1	1.0382378	-9.281203	230	3	1.1	0.9	6.8700	0.0000	0.0000	0.0000;
	88	1	49.34	14.06	0	0	1	1.0367741	-10.475486	115	3	1.1	0.9	6.8700	0.0000	0.0000	0.0000;
	89	1	62.85	17.91	0	0	1	1.0367956	-6.001781	115	7	1.1	0.9	6.8700	0.0000	0.0000	0.0000;
	90	2	0	0	0	0	1	1.04	-4.84285	13.8	7	1.1	0.9	6.8700	0.0000	0.0000	0.0000;
	91	2	0	0	0	0	1	1.04	-5.608287	13.8	7	1.1	0.9	6.8700	0.0000	0.0000	0.0000;
	92	2	0	0	0	0	1	1.0367956	-6.001781	13.8	7	1.1	0.9	6.8700	0.0000	0.0000	0.0000;
	93	1	3.06	0.87	0	0	1	1.0467635	-7.705981	115	4	1.1	0.9	6.8700	0.0000	0.0000	0.0000;
	94	2	0	0	0	0	1	1.0412845	-6.897097	13.8	4	1.1	0.9	6.8700	0.0000	0.0000	0.0000;
	95	1	3	0.85	0	30	1	1.0452705	-6.143695	115	7	1.1	0.9	6.8700	0.0000	0.0000	0.0000;
	96	1	2.96	0.84	0	0	1	1.0399843	-4.622369	115	7	1.1	0.9	6.8700	0.0000	0.0000	0.0000;
	97	1	7.33	2.09	0	0	1	1.0266279	-8.070874	115	2	1.1	0.9	6.8700	0.0000	0.0000	0.0000;
	98	1	0	0	0	0	1	1.0259732	-5.693301	230	2	1.1	0.9	6.8700	0.0000	0.0000	0.0000;
	99	1	12.17	3.47	0	0	1	1.021759	-6.532648	115	2	1.1	0.9	6.8700	0.0000	0.0000	0.0000;
	100	1	37.39	10.66	0	80	1	1.05559	-7.845164	115	5	1.1	0.9	6.8700	0.0000	0.0000	0.0000;
	101	1	0.52	0.15	0	0	1	1.0153419	-7.486883	115	2	1.1	0.9	6.8700	0.0000	0.0000	0.0000;
	102	1	0	0	0	0	1	1.0375884	-1.855349	230	7	1.1	0.9	6.8700	0.0000	0.0000	0.0000;
	103	1	0	0	0	0	1	1.0361908	-2.820525	115	7	1.1	0.9	6.8700	0.0000	0.0000	0.0000;
	104	2	0	0	0	0	1	1.04	1.292356	13.8	7	1.1	0.9	6.8700	0.0000	0.0000	0.0000;
	105	2	0	0	0	0	1	1.04	3.030149	13.8	7	1.1	0.9	6.8700	0.0000	0.0000	0.0000;
	106	1	2.06	0.59	0	0	1	1.0333053	-3.587524	115	7	1.1	0.9	6.8700	0.0000	0.0000	0.0000;
	107	1	52.56	14.98	0	0	1	1.0164253	-5.897801	115	7	1.1	0.9	6.8700	0.0000	0.0000	0.0000;
	108	1	9.42	2.68	0	0	1	1.02631	-6.590908	115	2	1.1	0.9	6.8700	0.0000	0.0000	0.0000;
	109	1	5.16	1.47	0	0	1	1.0266885	-7.119037	115	4	1.1	0.9	6.8700	0.0000	0.0000	0.0000;
	110	1	10.86	3.09	0	0	1	1.0153998	-7.494693	115	2	1.1	0.9	6.8700	0.0000	0.0000	0.0000;
	111	1	8.82	2.51	0	0	1	1.0422996	-8.069078	115	5	1.1	0.9	6.8700	0.0000	0.0000	0.0000;
	112	1	0	0	0	0	1	1.0338868	-2.38601	230	7	1.1	0.9	6.8700	0.0000	0.0000	0.0000;
	113	1	0	0	0	0	1	1.0214787	-5.246294	115	7	1.1	0.9	6.8700	0.0000	0.0000	0.0000;
	114	2	0	0	0	0	1	1.0362036	-2.072597	13.8	7	1.1	0.9	6.8700	0.0000	0.0000	0.0000;
	115	2	0	0	0	0	1	1.04	2.075284	13.8	7	1.1	0.9	6.8700	0.0000	0.0000	0.0000;
	116	1	0	0	0	0	1	1.0260581	-5.40757	230	2	1.1	0.9	6.8700	0.0000	0.0000	0.0000;
	117	1	34.08	9.71	0	0	1	1.0194057	-6.761358	115	2	1.1	0.9	6.8700	0.0000	0.0000	0.0000;
	118	1	3.94	1.12	0	0	1	1.0220863	-6.761277	115	2	1.1	0.9	6.8700	0.0000	0.0000	0.0000;
	119	1	17.55	5	0	0	1	1.0162966	-7.890283	115	2	1.1	0.9	6.8700	0.0000	0.0000	0.0000;
	120	1	1.8	0.51	0	0	1	1.0244523	-9.26074	115	4	1.1	0.9	6.8700	0.0000	0.0000	0.0000;
	121	1	0	0	0	0	1	1.0413751	-2.550667	230	7	1.1	0.9	6.8700	0.0000	0.0000	0.0000;
	122	1	15.44	4.4	0	0	1	1.0392113	-3.476706	115	7	1.1	0.9	6.8700	0.0000	0.0000	0.0000;
	123	1	0	0	0	0	1	1.0317706	-4.799729	230	2	1.1	0.9	6.8700	0.0000	0.0000	0.0000;
	124	1	0	0	0	0	1	1.0241995	-6.311793	115	2	1.1	0.9	6.8700	0.0000	0.0000	0.0000;
	125	2	0	0	0	0	1	1.04	-2.638002	13.8	2	1.1	0.9	6.8700	0.0000	0.0000	0.0000;
	126	2	0	0	0	0	1	1.04	-3.433514	13.8	2	1.1	0.9	6.8700	0.0000	0.0000	0.0000;
	127	2	0	0	0	0	1	1.04	-4.153305	13.8	2	1.1	0.9	6.8700	0.0000	0.0000	0.0000;
	128	1	0	0	0	0	1	1.0336624	-2.641873	230	7	1.1	0.9	6.8700	0.0000	0.0000	0.0000;
	129	1	77.24	22.01	0	0	1	1.0199071	-5.280933	115	7	1.1	0.9	6.8700	0.0000	0.0000	0.0000;
	130	1	4.4	1.25	0	0	1	1.0308537	-4.215383	115	7	1.1	0.9	6.8700	0.0000	0.0000	0.0000;
	131	1	30.25	8.62	0	0	1	1.0159516	-7.483658	115	2	1.1	0.9	6.8700	0.0000	0.0000	0.0000;
	132	1	26.96	7.68	0	0	1	1.0142019	-7.143976	115	2	1.1	0.9	6.8700	0.0000	0.0000	0.0000;
	133	1	0	0	0	0	1	1.033428	-4.376173	230	2	1.1	0.9	6.8700	0.0000	0.0000	0.0000;
	134	1	0	0	0	0	1	1.0315652	-5.231244	115	2	1.1	0.9	6.8700	0.0000	0.0000	0.0000;
	135	2	0	0	0	0	1	1.04	-1.987898	13.8	2	1.1	0.9	6.8700	0.0000	0.0000	0.0000;
	136	2	0	0	0	0	1	1.04	-2.419807	13.8	2	1.1	0.9	6.8700	0.0000	0.0000	0.0000;
	137	1	1.16	0.33	0	0	1	1.0313258	-9.719095	115	4	1.1	0.9	6.8700	0.0000	0.0000	0.0000;
	138	1	2.09	0.6	0	0	1	1.0307923	-5.699318	115	6	1.1	0.9	6.8700	0.0000	0.0000	0.0000;
	139	1	6.84	1.95	0	0	1	1.0214166	-7.361468	115	2	1.1	0.9	6.8700	0.0000	0.0000	0.0000;
	140	1	8.21	2.34	0	0	1	1.0231103	-6.390899	115	2	1.1	0.9	6.8700	0.0000	0.0000	0.0000;
	141	1	1.42	0.41	0	0	1	1.0153587	-7.521902	115	2	1.1	0.9	6.8700	0.0000	0.0000	0.0000;
	142	1	37.26	10.62	0	0	1	1.0140717	-7.617783	115	2	1.1	0.9	6.8700	0.0000	0.0000	0.0000;
	143	1	26.78	7.63	0	0	1	1.0372589	-6.549447	115	5	1.1	0.9	6.8700	0.0000	0.0000	0.0000;
	144	1	9.05	2.58	0	0	1	1.0236389	-5.928282	115	2	1.1	0.9	6.8700	0.0000	0.0000	0.0000;
	145	1	17.54	5	0	0	1	1.0320168	-11.164121	115	3	1.1	0.9	6.8700	0.0000	0.0000	0.0000;
	146	1	0	0	0	0	1	1.0331184	-4.010275	115	7	1.1	0.9	6.8700	0.0000	0.0000	0.0000;
	147	2	0	0	0	0	1	1.04	1.000906	13.8	7	1.1	0.9	6.8700	0.0000	0.0000	0.0000;
	148	1	32.02	9.13	0	0	1	1.0102299	-8.189318	115	2	1.1	0.9	6.8700	0.0000	0.0000	0.0000;
	149	1	0	0	0	0	1	1.0395559	-8.879345	230	3	1.1	0.9	6.8700	0.0000	0.0000	0.0000;
	150	1	0	0	0	0	1	1.039664	-9.999925	115	3	1.1	0.9	6.8700	0.0000	0.0000	0.0000;
	151	2	0	0	0	0	1	1.04	-8.34258	13.8	3	1.1	0.9	6.8700	0.0000	0.0000	0.0000;
	152	2	0	0	0	0	1	1.04	-7.139644	13.8	3	1.1	0.9	6.8700	0.0000	0.0000	0.0000;
	153	2	0	0	0	0	1	1.04	-6.612046	13.8	3	1.1	0.9	6.8700	0.0000	0.0000	0.0000;
	154	2	0	0	0	0	1	1.04	-7.61542	13.8	3	1.1	0.9	6.8700	0.0000	0.0000	0.0000;
	155	2	0	0	0	0	1	1.04	-7.653539	13.8	3	1.1	0.9	6.8700	0.0000	0.0000	0.0000;
	156	1	0	0	0	0	1	1.0321033	-4.724707	230	2	1.1	0.9	6.8700	0.0000	0.0000	0.0000;
	157	1	14.76	4.21	0	0	1	1.0305206	-5.439245	115	2	1.1	0.9	6.8700	0.0000	0.0000	0.0000;
	158	1	8.97	2.56	0	0	1	1.0434577	-7.900145	115	4	1.1	0.9	6.8700	0.0000	0.0000	0.0000;
	159	1	1.39	0.4	0	0	1	1.0265896	-10.742416	115	4	1.1	0.9	6.8700	0.0000	0.0000	0.0000;
	160	1	0	0	0	0	1	1.0311472	-11.239582	115	4	1.1	0.9	6.8700	0.0000	0.0000	0.0000;
	161	2	0	0	0	0	1	1.0311472	-11.239582	13.8	4	1.1	0.9	6.8700	0.0000	0.0000	0.0000;
	162	1	1.45	0.41	0	0	1	1.0225791	-6.221058	115	2	1.1	0.9	6.8700	0.0000	0.0000	0.0000;
	163	1	45.8	13.05	0	0	1	1.0431643	-7.926244	115	5	1.1	0.9	6.8700	0.0000	0.0000	0.0000;
	164	2	0	0	0	0	1	1.0431643	-7.926244	13.8	5	1.1	0.9	6.8700	0.0000	0.0000	0.0000;
	165	2	0	0	0	0	1	1.0431643	-7.926244	13.8	5	1.1	0.9	6.8700	0.0000	0.0000	0.0000;
	166	2	0	0	0	0	1	1.0431643	-7.926244	13.8	5	1.1	0.9	6.8700	0.0000	0.0000	0.0000;
	167	2	0	0	0	0	1	1.0414716	-7.628263	13.8	5	1.1	0.9	6.8700	0.0000	0.0000	0.0000;
	168	2	0	0	0	0	1	1.0431643	-7.926244	13.8	5	1.1	0.9	6.8700	0.0000	0.0000	0.0000;
	169	2	0	0	0	0	1	1.0431643	-7.926244	13.8	5	1.1	0.9	6.8700	0.0000	0.0000	0.0000;
	170	2	0	0	0	0	1	1.04	-7.359358	13.8	5	1.1	0.9	6.8700	0.0000	0.0000	0.0000;
	171	1	7.94	2.26	0	0	1	1.0293606	-5.544471	115	6	1.1	0.9	6.8700	0.0000	0.0000	0.0000;
	172	1	5.38	1.53	0	0	1	1.0446624	-6.737828	115	5	1.1	0.9	6.8700	0.0000	0.0000	0.0000;
	173	1	8.71	2.48	0	0	1	1.0438694	-7.824896	115	5	1.1	0.9	6.8700	0.0000	0.0000	0.0000;
	174	1	2.77	0.79	0	0	1	1.048556	-6.975714	115	5	1.1	0.9	6.8700	0.0000	0.0000	0.0000;
	175	1	7.31	2.08	0	0	1	1.042508	-8.051141	115	5	1.1	0.9	6.8700	0.0000	0.0000	0.0000;
	176	1	19.01	5.42	0	0	1	1.034057	-10.848998	115	3	1.1	0.9	6.8700	0.0000	0.0000	0.0000;
	177	1	11.29	3.22	0	0	1	1.0279083	-5.445402	115	7	1.1	0.9	6.8700	0.0000	0.0000	0.0000;
	178	1	0	0	0	0	1	1.0414926	-4.889523	230	5	1.1	0.9	6.8700	0.0000	0.0000	0.0000;
	179	1	23.61	6.73	0	0	1	1.0462277	-6.907941	115	5	1.1	0.9	6.8700	0.0000	0.0000	0.0000;
	180	1	7.74	2.21	0	0	1	1.045211	-7.124937	115	5	1.1	0.9	6.8700	0.0000	0.0000	0.0000;
	181	1	47.98	13.67	0	0	1	1.0333892	-11.195233	115	4	1.1	0.9	6.8700	0.0000	0.0000	0.0000;
	182	2	0	0	0	0	1	1.04	-10.37446	13.8	4	1.1	0.9	6.8700	0.0000	0.0000	0.0000;
	183	2	0	0	0	0	1	1.04	-10.723282	13.8	4	1.1	0.9	6.8700	0.0000	0.0000	0.0000;
	184	1	10.69	3.05	0	0	1	1.0492205	-8.289414	115	5	1.1	0.9	6.8700	0.0000	0.0000	0.0000;
	185	1	10.79	3.07	0	0	1	1.0341291	-10.871111	115	3	1.1	0.9	6.8700	0.0000	0.0000	0.0000;
	186	1	2.1	0.6	0	0	1	1.0294683	-5.915141	115	2	1.1	0.9	6.8700	0.0000	0.0000	0.0000;
	187	1	0	0	0	0	1	1.0411088	-1.59351	230	7	1.1	0.9	6.8700	0.0000	0.0000	0.0000;
	188	1	0	0	0	0	1	1.0422271	-4.274235	115	7	1.1	0.9	6.8700	0.0000	0.0000	0.0000;
	189	3	0	0	0	0	1	1.04	0	13.8	7	1.1	0.9	6.8700	0.0000	0.0000	0.0000;
	190	1	16.79	4.78	0	0	1	1.0275107	-5.607695	115	6	1.1	0.9	6.8700	0.0000	0.0000	0.0000;
	191	1	7.23	2.06	0	0	1	1.0460774	-7.762654	115	5	1.1	0.9	6.8700	0.0000	0.0000	0.0000;
	192	1	52.74	15.03	0	0	1	1.0166276	-5.99268	115	7	1.1	0.9	6.8700	0.0000	0.0000	0.0000;
	193	1	21.99	6.27	0	0	1	1.0164747	-7.379588	115	2	1.1	0.9	6.8700	0.0000	0.0000	0.0000;
	194	1	37.57	10.71	0	50	1	1.0400826	-10.703489	115	3	1.1	0.9	6.8700	0.0000	0.0000	0.0000;
	195	1	0	0	0	0	1	1.0332601	-5.127426	115	6	1.1	0.9	6.8700	0.0000	0.0000	0.0000;
	196	2	0	0	0	0	1	1.0332601	-5.127426	13.8	6	1.1	0.9	6.8700	0.0000	0.0000	0.0000;
	197	2	0	0	0	0	1	1.0332601	-5.127426	13.8	6	1.1	0.9	6.8700	0.0000	0.0000	0.0000;
	198	1	5.37	1.53	0	0	1	1.0232234	-6.849765	115	2	1.1	0.9	6.8700	0.0000	0.0000	0.0000;
	199	1	4.26	1.21	0	0	1	1.0438791	-5.721465	115	6	1.1	0.9	6.8700	0.0000	0.0000	0.0000;
	200	1	9.34	2.66	0	0	1	1.0259148	-9.367606	115	4	1.1	0.9	6.8700	0.0000	0.0000	0.0000;
];

%% generator data
%	bus	Pg	Qg	Qmax	Qmin	Vg	mBase	status	Pmax	Pmin	Pc1	Pc2	Qc1min	Qc1max	Qc2min	Qc2max	ramp_agc	ramp_10	ramp_30	ramp_q	apf	mu_Pmax	mu_Pmin	mu_Qmax	mu_Qmin
mpc.gen = [
	49	1.36	0.88	2.11	-0.55	1.04	5.44	1	4.53	1.36	0	0	0	0	0	0	0	0	0	0	0	0.0000	0.0000	0.0000	0.0000;
	50	1.36	1.18	2.11	-0.55	1.04	5.44	1	4.53	1.36	0	0	0	0	0	0	0	0	0	0	0	0.0000	0.0000	0.0000	0.0000;
	51	1.36	0.77	2.11	-0.55	1.04	5.44	1	4.53	1.36	0	0	0	0	0	0	0	0	0	0	0	0.0000	0.0000	0.0000	0.0000;
	52	1.36	1.25	2.11	-0.55	1.04	5.44	1	4.53	1.36	0	0	0	0	0	0	0	0	0	0	0	0.0000	0.0000	0.0000	0.0000;
	53	2.72	0.79	4.23	-1.11	1.04	10.88	1	9.07	2.72	0	0	0	0	0	0	0	0	0	0	0	0.0000	0.0000	0.0000	0.0000;
	65	86.5	0.84	32.04	-21.66	1.04	180.48	1	86.5	86.5	0	0	0	0	0	0	0	0	0	0	0	0.0000	0.0000	0.0000	0.0000;
	67	1.41	-0.57	2.19	-0.57	1.04	5.64	1	4.7	1.41	0	0	0	0	0	0	0	0	0	0	0	0.0000	0.0000	0.0000	0.0000;
	68	8.38	-0.55	13.01	-3.41	1.04	33.5	1	27.92	8.38	0	0	0	0	0	0	0	0	0	0	0	0.0000	0.0000	0.0000	0.0000;
	69	8.38	-1.53	13.01	-3.41	1.04	33.5	1	27.92	8.38	0	0	0	0	0	0	0	0	0	0	0	0.0000	0.0000	0.0000	0.0000;
	70	8.38	-0.78	13.01	-3.41	1.04	33.5	1	27.92	8.38	0	0	0	0	0	0	0	0	0	0	0	0.0000	0.0000	0.0000	0.0000;
	71	8.38	-1.7	13.01	-3.41	1.04	33.5	1	27.92	8.38	0	0	0	0	0	0	0	0	0	0	0	0.0000	0.0000	0.0000	0.0000;
	72	8.38	-1.86	13.01	-3.41	1.04	33.5	1	27.92	8.38	0	0	0	0	0	0	0	0	0	0	0	0.0000	0.0000	0.0000	0.0000;
	73	8.38	-1.11	13.01	-3.41	1.04	33.5	1	27.92	8.38	0	0	0	0	0	0	0	0	0	0	0	0.0000	0.0000	0.0000	0.0000;
	76	1.2	1.41	2.04	-0.44	1.04	4.8	1	4	1.2	0	0	0	0	0	0	0	0	0	0	0	0.0000	0.0000	0.0000	0.0000;
	77	0.72	0.5	1.22	-0.27	1.04	2.88	1	2.4	0.72	0	0	0	0	0	0	0	0	0	0	0	0.0000	0.0000	0.0000	0.0000;
	78	0	0	9.16	-2	1.04	21.6	0	18	5.4	0	0	0	0	0	0	0	0	0	0	0	0.0000	0.0000	0.0000	0.0000;
	79	0	0	9.16	-2	1.04	21.6	0	18	5.4	0	0	0	0	0	0	0	0	0	0	0	0.0000	0.0000	0.0000	0.0000;
	90	0.96	0.13	1.63	-0.36	1.04	3.84	1	3.2	0.96	0	0	0	0	0	0	0	0	0	0	0	0.0000	0.0000	0.0000	0.0000;
	91	1.5	0.59	2.55	-0.55	1.04	6	1	5	1.5	0	0	0	0	0	0	0	0	0	0	0	0.0000	0.0000	0.0000	0.0000;
	92	0	0	3.21	-0.7	1.04	7.56	0	6.3	1.89	0	0	0	0	0	0	0	0	0	0	0	0.0000	0.0000	0.0000	0.0000;
	94	5.4	-2.2	8.39	-2.2	1.04	21.6	1	18	5.4	0	0	0	0	0	0	0	0	0	0	0	0.0000	0.0000	0.0000	0.0000;
	104	67.6	3.1	21.09	-14.26	1.04	118.8	1	67.6	67.6	0	0	0	0	0	0	0	0	0	0	0	0.0000	0.0000	0.0000	0.0000;
	105	154.8	8.29	42.17	-28.51	1.04	237.6	1	154.8	154.8	0	0	0	0	0	0	0	0	0	0	0	0.0000	0.0000	0.0000	0.0000;
	114	1.4	0.36	0.36	-0.24	1.04	2.04	1	1.4	1.4	0	0	0	0	0	0	0	0	0	0	0	0.0000	0.0000	0.0000	0.0000;
	115	133.5	12.6	31.95	-21.6	1.04	180	1	133.5	133.5	0	0	0	0	0	0	0	0	0	0	0	0.0000	0.0000	0.0000	0.0000;
	125	39.02	7.24	60.6	-15.87	1.04	156.06	1	130.05	39.02	0	0	0	0	0	0	0	0	0	0	0	0.0000	0.0000	0.0000	0.0000;
	126	39.02	12.55	60.6	-15.87	1.04	156.06	1	130.05	39.02	0	0	0	0	0	0	0	0	0	0	0	0.0000	0.0000	0.0000	0.0000;
	127	39.02	25.99	60.6	-15.87	1.04	156.06	1	130.05	39.02	0	0	0	0	0	0	0	0	0	0	0	0.0000	0.0000	0.0000	0.0000;
	135	133.92	21.46	208.02	-54.46	1.04	535.68	1	446.4	133.92	0	0	0	0	0	0	0	0	0	0	0	0.0000	0.0000	0.0000	0.0000;
	136	133.92	25.06	208.02	-54.46	1.04	535.68	1	446.4	133.92	0	0	0	0	0	0	0	0	0	0	0	0.0000	0.0000	0.0000	0.0000;
	147	92.4	8.79	21.41	-14.47	1.04	120.6	1	92.4	92.4	0	0	0	0	0	0	0	0	0	0	0	0.0000	0.0000	0.0000	0.0000;
	151	1.62	0.02	2.52	-0.66	1.04	6.48	1	5.4	1.62	0	0	0	0	0	0	0	0	0	0	0	0.0000	0.0000	0.0000	0.0000;
	152	23.17	0.27	35.99	-9.42	1.04	92.67	1	77.22	23.17	0	0	0	0	0	0	0	0	0	0	0	0.0000	0.0000	0.0000	0.0000;
	153	23.17	0.02	35.99	-9.42	1.04	92.67	1	77.22	23.17	0	0	0	0	0	0	0	0	0	0	0	0.0000	0.0000	0.0000	0.0000;
	154	23.17	0.14	35.99	-9.42	1.04	92.67	1	77.22	23.17	0	0	0	0	0	0	0	0	0	0	0	0.0000	0.0000	0.0000	0.0000;
	155	23.17	0.13	35.99	-9.42	1.04	92.67	1	77.22	23.17	0	0	0	0	0	0	0	0	0	0	0	0.0000	0.0000	0.0000	0.0000;
	161	0	0	70.55	-15.38	1.04	166.32	0	138.6	41.58	0	0	0	0	0	0	0	0	0	0	0	0.0000	0.0000	0.0000	0.0000;
	164	0	0	6.11	-1.33	1.04	14.4	0	12	3.6	0	0	0	0	0	0	0	0	0	0	0	0.0000	0.0000	0.0000	0.0000;
	165	0	0	13.23	-2.89	1.04	31.2	0	26	7.8	0	0	0	0	0	0	0	0	0	0	0	0.0000	0.0000	0.0000	0.0000;
	166	0	0	4.78	-1.04	1.04	11.28	0	9.4	2.82	0	0	0	0	0	0	0	0	0	0	0	0.0000	0.0000	0.0000	0.0000;
	167	2.82	-1.04	4.78	-1.04	1.04	11.28	1	9.4	2.82	0	0	0	0	0	0	0	0	0	0	0	0.0000	0.0000	0.0000	0.0000;
	168	0	0	4.78	-1.04	1.04	11.28	0	9.4	2.82	0	0	0	0	0	0	0	0	0	0	0	0.0000	0.0000	0.0000	0.0000;
	169	0	0	4.78	-1.04	1.04	11.28	0	9.4	2.82	0	0	0	0	0	0	0	0	0	0	0	0.0000	0.0000	0.0000	0.0000;
	170	2.82	-0.99	4.78	-1.04	1.04	11.28	1	9.4	2.82	0	0	0	0	0	0	0	0	0	0	0	0.0000	0.0000	0.0000	0.0000;
	182	5.25	2.15	8.16	-2.14	1.04	21	1	17.5	5.25	0	0	0	0	0	0	0	0	0	0	0	0.0000	0.0000	0.0000	0.0000;
	183	7.98	5.73	12.4	-3.25	1.04	31.92	1	26.6	7.98	0	0	0	0	0	0	0	0	0	0	0	0.0000	0.0000	0.0000	0.0000;
	189	384.37	-24.15	209.45	-46.67	1.04	682.98	1	569.15	170.75	0	0	0	0	0	0	0	0	0	0	0	0.0000	0.0000	0.0000	0.0000;
	196	0	0	34.36	-7.49	1.04	81	0	67.5	20.25	0	0	0	0	0	0	0	0	0	0	0	0.0000	0.0000	0.0000	0.0000;
	197	0	0	34.36	-7.49	1.04	81	0	67.5	20.25	0	0	0	0	0	0	0	0	0	0	0	0.0000	0.0000	0.0000	0.0000;
];

%% branch data
%	fbus	tbus	r	x	b	rateA	rateB	rateC	ratio	angle	status	angmin	angmax	Pf	Qf	Pt	Qt	mu_Sf	mu_St	mu_angmin	mu_angmax
mpc.branch = [
	2	1	0.000673	0.003339	0	100	0	0	0	0	1	0	0	-7.3900	-2.1000	7.3900	2.1100	0.0000	0.0000	0.0000	0.0000;
	1	119	0.018542	0.119758	0.02285	221.1	0	0	0	0	1	0	0	12.2500	-0.5700	-12.2200	-1.6300	0.0000	0.0000	0.0000	0.0000;
	124	1	0.005615	0.036268	0.00692	221.1	0	0	0	0	1	0	0	40.1300	7.9400	-40.0400	-8.0800	0.0000	0.0000	0.0000	0.0000;
	193	1	0.004258	0.027501	0.00525	221.1	0	0	0	0	1	0	0	-20.3900	-6.9600	20.4100	6.5400	0.0000	0.0000	0.0000	0.0000;
	4	3	0.000573	0.003303	0	100	0	0	0	0	1	0	0	-1.7000	-0.4800	1.7000	0.4800	0.0000	0.0000	0.0000	0.0000;
	57	3	0.008505	0.058098	0.00988	221.1	0	0	0	0	1	0	0	-13.5600	-1.8900	13.5800	0.9400	0.0000	0.0000	0.0000	0.0000;
	3	137	0.005889	0.038035	0.00726	221.1	0	0	0	0	1	0	0	-15.2700	-1.4200	15.2900	0.7400	0.0000	0.0000	0.0000	0.0000;
	6	5	0.000694	0.003337	0	100	0	0	0	0	1	0	0	-7.9500	-2.2600	7.9500	2.2700	0.0000	0.0000	0.0000	0.0000;
	48	5	0.006246	0.043513	0.00711	221.1	0	0	0	0	1	0	0	-27.2200	-1.3800	27.2700	0.9200	0.0000	0.0000	0.0000	0.0000;
	5	64	0.007877	0.054875	0.00897	221.1	0	0	0	0	1	0	0	-35.2100	-3.1900	35.3000	2.8600	0.0000	0.0000	0.0000	0.0000;
	8	7	0.000634	0.003189	0	100	0	0	0	0	1	0	0	-23.7400	-6.7700	23.7400	6.7800	0.0000	0.0000	0.0000	0.0000;
	7	86	0.003756	0.024259	0.00463	221.1	0	0	0	0	1	0	0	-12.2900	-3.2900	12.2900	2.8600	0.0000	0.0000	0.0000	0.0000;
	7	101	0.003597	0.023232	0.00443	221.1	0	0	0	0	1	0	0	-24.5900	-6.1400	24.6100	5.8300	0.0000	0.0000	0.0000	0.0000;
	7	148	0.008667	0.05598	0.01068	221.1	0	0	0	0	1	0	0	13.1400	2.6500	-13.1200	-3.6500	0.0000	0.0000	0.0000	0.0000;
	10	9	0.000585	0.003967	0	100	0	0	0	0	1	0	0	-42.6800	-12.1600	42.6900	12.2400	0.0000	0.0000	0.0000	0.0000;
	9	124	0.008069	0.055123	0.00938	221.1	0	0	0	0	1	0	0	-39.5800	-9.8300	39.7000	9.7400	0.0000	0.0000	0.0000	0.0000;
	131	9	0.004139	0.026732	0.0051	221.1	0	0	0	0	1	0	0	-0.6800	0.5200	0.6800	-1.0400	0.0000	0.0000	0.0000	0.0000;
	9	141	0.004446	0.03097	0.00506	221.1	0	0	0	0	1	0	0	3.0500	0.6700	-3.0500	-1.1800	0.0000	0.0000	0.0000	0.0000;
	9	193	0.003695	0.025244	0.00429	221.1	0	0	0	0	1	0	0	-6.8500	-2.0300	6.8500	1.6000	0.0000	0.0000	0.0000	0.0000;
	12	11	0.000534	0.003533	0	100	0	0	0	0	1	0	0	-0.3000	-0.0900	0.3000	0.0900	0.0000	0.0000	0.0000	0.0000;
	13	11	0.000619	0.003606	0	100	0	0	0	0	1	0	0	-2.5200	-0.7200	2.5200	0.7200	0.0000	0.0000	0.0000	0.0000;
	11	15	0.010408	0.06722	0.01282	221.1	0	0	0	0	1	0	0	-14.5200	-2.5400	14.5400	1.2600	0.0000	0.0000	0.0000	0.0000;
	11	93	0.018394	0.128141	0.02095	221.1	0	0	0	0	1	0	0	1.4400	-1.6200	-1.4400	-0.6800	0.0000	0.0000	0.0000	0.0000;
	158	11	0.008519	0.058199	0.0099	221.1	0	0	0	0	1	0	0	-10.2400	-4.3700	10.2400	3.3500	0.0000	0.0000	0.0000	0.0000;
	15	14	0.000637	0.027526	0	300	0	0	1	0	1	0	0	-59.3100	18.9400	59.3300	-17.9700	0.0000	0.0000	0.0000	0.0000;
	14	121	0.007013	0.050098	0.09134	402.36	0	0	0	0	1	0	0	-135.7000	25.2800	136.9400	-26.3500	0.0000	0.0000	0.0000	0.0000;
	14	149	0.009133	0.065244	0.11895	402.36	0	0	0	0	1	0	0	76.3700	-7.3200	-75.8800	-2.1100	0.0000	0.0000	0.0000	0.0000;
	16	15	0.000553	0.0032	0	100	0	0	0	0	1	0	0	-44.7600	-12.7600	44.7700	12.8200	0.0000	0.0000	0.0000	0.0000;
	18	17	0.000503	0.003926	0	100	0	0	0	0	1	0	0	-0.7100	-0.2000	0.7100	0.2000	0.0000	0.0000	0.0000	0.0000;
	19	17	0.000514	0.003079	0	100	0	0	0	0	1	0	0	-0.7700	-0.2200	0.7700	0.2200	0.0000	0.0000	0.0000	0.0000;
	20	17	0.000623	0.003339	0	100	0	0	0	0	1	0	0	-1.1300	-0.3200	1.1300	0.3200	0.0000	0.0000	0.0000	0.0000;
	21	17	0.00062	0.00394	0	100	0	0	0	0	1	0	0	-4.6100	-1.3100	4.6100	1.3100	0.0000	0.0000	0.0000	0.0000;
	109	17	0.009789	0.068198	0.01115	221.1	0	0	0	0	1	0	0	31.7400	-1.9600	-31.6500	1.4400	0.0000	0.0000	0.0000	0.0000;
	17	120	0.010316	0.070473	0.01199	221.1	0	0	0	0	1	0	0	24.4200	-3.5000	-24.3600	2.6500	0.0000	0.0000	0.0000	0.0000;
	23	22	0.000616	0.003222	0	100	0	0	0	0	1	0	0	-1.4100	-0.4000	1.4100	0.4000	0.0000	0.0000	0.0000	0.0000;
	24	22	0.000687	0.003067	0	100	0	0	0	0	1	0	0	-2.4000	-0.6800	2.4000	0.6800	0.0000	0.0000	0.0000	0.0000;
	22	27	0.011379	0.073494	0.01402	221.1	0	0	0	0	1	0	0	-1.4100	-2.0700	1.4100	0.5400	0.0000	0.0000	0.0000	0.0000;
	158	22	0.012701	0.086769	0.01476	221.1	0	0	0	0	1	0	0	2.4000	-2.5900	-2.4000	0.9900	0.0000	0.0000	0.0000	0.0000;
	26	25	0.00061	0.003071	0	100	0	0	0	0	1	0	0	-1.3500	-0.3900	1.3500	0.3900	0.0000	0.0000	0.0000	0.0000;
	25	64	0.007643	0.053244	0.0087	221.1	0	0	0	0	1	0	0	-50.9200	9.4100	51.1100	-9.0400	0.0000	0.0000	0.0000	0.0000;
	199	25	0.009909	0.064003	0.01221	221.1	0	0	0	0	1	0	0	-49.3300	9.9600	49.5700	-9.8000	0.0000	0.0000	0.0000	0.0000;
	28	27	0.000587	0.003964	0	100	0	0	0	0	1	0	0	-2.3300	-0.6700	2.3300	0.6700	0.0000	0.0000	0.0000	0.0000;
	27	93	0.025172	0.175362	0.02867	221.1	0	0	0	0	1	0	0	-2.9600	-1.7500	2.9600	-1.3700	0.0000	0.0000	0.0000	0.0000;
	27	158	0.020429	0.131945	0.02517	221.1	0	0	0	0	1	0	0	-0.7800	0.5400	0.7800	-3.2900	0.0000	0.0000	0.0000	0.0000;
	30	29	0.000694	0.003131	0	100	0	0	0	0	1	0	0	-59.0900	-16.8400	59.1100	16.9500	0.0000	0.0000	0.0000	0.0000;
	124	29	0.005561	0.038742	0.00633	221.1	0	0	0	0	1	0	0	36.4400	10.6100	-36.3600	-10.7300	0.0000	0.0000	0.0000	0.0000;
	29	140	0.007895	0.055004	0.00899	221.1	0	0	0	0	1	0	0	-22.7500	-6.2200	22.7900	5.5800	0.0000	0.0000	0.0000	0.0000;
	32	31	0.000667	0.003884	0	100	0	0	0	0	1	0	0	-0.5100	-0.1500	0.5100	0.1500	0.0000	0.0000	0.0000	0.0000;
	33	31	0.000528	0.003639	0	100	0	0	0	0	1	0	0	-6.4400	-1.8400	6.4400	1.8400	0.0000	0.0000	0.0000	0.0000;
	177	31	0.008406	0.05856	0.00957	221.1	0	0	0	0	1	0	0	13.4300	8.7800	-13.4100	-9.6400	0.0000	0.0000	0.0000	0.0000;
	192	31	0.008088	0.05525	0.0094	221.1	0	0	0	0	1	0	0	-6.4500	-8.5800	6.4600	7.6600	0.0000	0.0000	0.0000	0.0000;
	35	34	0.000575	0.003674	0	100	0	0	0	0	1	0	0	-20.7600	-5.9200	20.7600	5.9300	0.0000	0.0000	0.0000	0.0000;
	34	54	0.006268	0.042819	0.00729	221.1	0	0	0	0	1	0	0	-37.2300	-6.2100	37.3100	6.0000	0.0000	0.0000	0.0000	0.0000;
	34	137	0.006911	0.044639	0.00852	221.1	0	0	0	0	1	0	0	16.4600	0.2700	-16.4500	-1.0700	0.0000	0.0000	0.0000	0.0000;
	37	36	0.000552	0.003328	0	100	0	0	0	0	1	0	0	-3.5700	-1.0200	3.5700	1.0200	0.0000	0.0000	0.0000	0.0000;
	38	36	0.00067	0.003511	0	100	0	0	0	0	1	0	0	-29.8100	-8.5000	29.8100	8.5300	0.0000	0.0000	0.0000	0.0000;
	58	36	0.010889	0.07439	0.01266	221.1	0	0	0	0	1	0	0	4.9900	8.1600	-4.9800	-9.4300	0.0000	0.0000	0.0000	0.0000;
	83	36	0.009615	0.066986	0.01095	221.1	0	0	0	0	1	0	0	28.4700	-0.5300	-28.4000	-0.1100	0.0000	0.0000	0.0000	0.0000;
	40	39	0.000505	0.003103	0	100	0	0	0	0	1	0	0	-2.0400	-0.5800	2.0400	0.5800	0.0000	0.0000	0.0000	0.0000;
	39	85	0.008702	0.060625	0.00991	221.1	0	0	0	0	1	0	0	-17.6700	2.9300	17.6900	-3.7800	0.0000	0.0000	0.0000	0.0000;