function mpc = case_ACTIVSg2000
%CASE_ACTIVSG2000  Synthetic Texas 2000-bus power system model.
%
%   This is an entirely synthetic 2000 bus case, geographically situated
%   in the US state of Texas. The case is designed with a 500, 230, 161
%   115, 24, 22, 20, 18, 13.8 and 13.2 kV transmission network to serve
%   a load that roughly mimics the actual population of its geographic
%   footprint. The synthetic transmission system was designed by
%   algorithms described in [1] to be statistically similar to actual
%   transmission system models but without modeling any actual lines.
%
%   When publishing results based on this data, please cite:
%
%   [1] A.B. Birchfield, T. Xu, K.M. Gegner, K.S. Shetye, T.J. Overbye,
%       "Grid Structural Characteristics as Validation Criteria for
%       Synthetic Networks," IEEE Transactions on Power Systems, 2017.
%
%   This is a synthetic power system model that does not represent the
%   actual grid. It was developed as part of the US ARPA-E GRID DATA
%   research project and contains no CEII.
%
%   One-line diagrams and other data formats available at:
%       https://electricgrids.engr.tamu.edu
%
%   Sep 12, 2017 (version 3)

%   Created from ACTIV_SG_2000.pwb, saved by
%   PowerWorld Simulator, version 20 Beta, build date September 10, 2017,
%   then by MATPOWER 6.

%   MATPOWER
%   Copyright (c) 2017 by A.B. Birchfield, T. Xu, K.M. Gegner, K.S. Shetye,
%   and T.J. Overbye
%   Licensed under the Creative Commons Attribution 4.0 International license,
%   http://creativecommons.org/licenses/by/4.0/

%% MATPOWER Case Format : Version 2
mpc.version = '2';

%%-----  Power Flow Data  -----%%
%% system MVA base
mpc.baseMVA = 100;

%% bus data
%	bus_i	type	Pd	Qd	Gs	Bs	area	Vm	Va	baseKV	zone	Vmax	Vmin	lam_P	lam_Q	mu_Vmax	mu_Vmin
mpc.bus = [
	1001	1	20.78	5.89	0	0	1	0.9846057	-41.705585	115	1	1.1	0.9	19.0200	0.0000	0.0000	0.0000;
	1002	1	15.41	4.37	0	0	1	1.0393085	-37.034473	115	1	1.1	0.9	19.0200	0.0000	0.0000	0.0000;
	1003	1	0	0	0	0	1	1.011412	-36.84888	115	1	1.1	0.9	19.0200	0.0000	0.0000	0.0000;
	1004	2	0	0	0	0	1	1.0147672	-38.725189	230	1	1.1	0.9	19.0200	0.0000	0.0000	0.0000;
	1005	1	0	0	0	0	1	1.0114107	-35.149453	115	1	1.1	0.9	19.0200	0.0000	0.0000	0.0000;
	1006	2	0	0	0	0	1	1.0050106	-32.999605	13.8	1	1.1	0.9	19.0200	0.0000	0.0000	0.0000;
	1007	1	7.01	1.99	0	0	1	1.0432296	-37.34047	115	1	1.1	0.9	19.0200	0.0000	0.0000	0.0000;
	1008	1	0	0	0	0	1	1.0371277	-26.901645	115	1	1.1	0.9	19.0200	0.0000	0.0000	0.0000;
	1009	2	0	0	0	0	1	1.0273167	-23.719577	13.8	1	1.1	0.9	19.0200	0.0000	0.0000	0.0000;
	1010	1	0	0	0	0	1	1.0469593	-35.825803	115	1	1.1	0.9	19.0200	0.0000	0.0000	0.0000;
	1011	2	0	0	0	0	1	1.0472175	-34.553463	22	1	1.1	0.9	19.0200	0.0000	0.0000	0.0000;
	1012	1	2.99	0.85	0	9.5	1	1.0539935	-41.757167	115	1	1.1	0.9	19.0200	0.0000	0.0000	0.0000;
	1013	1	29.23	8.28	0	0	1	1.0152547	-34.192513	115	1	1.1	0.9	19.0200	0.0000	0.0000	0.0000;
	1014	1	2.22	0.63	0	0	1	1.0237355	-30.563007	115	1	1.1	0.9	19.0200	0.0000	0.0000	0.0000;
	1015	1	7.51	2.13	0	0	1	1.0475082	-37.147194	115	1	1.1	0.9	19.0200	0.0000	0.0000	0.0000;
	1016	1	2.89	0.82	0	30	1	1.0194169	-34.310529	115	1	1.1	0.9	19.0200	0.0000	0.0000	0.0000;
	1017	1	18.34	5.2	0	0	1	0.9878714	-40.318367	115	1	1.1	0.9	19.0200	0.0000	0.0000	0.0000;
	1018	1	0.07	0.02	0	0	1	0.9949983	-39.046768	115	1	1.1	0.9	19.0200	0.0000	0.0000	0.0000;
	1019	1	61.78	17.5	0	142.98	1	1.0047693	-41.28156	115	1	1.1	0.9	19.0200	0.0000	0.0000	0.0000;
	1020	1	0	0	0	76.73	1	1.0271767	-34.222181	115	1	1.1	0.9	19.0200	0.0000	0.0000	0.0000;
	1021	2	0	0	0	0	1	1.0029363	-27.654679	13.8	1	1.1	0.9	19.0200	0.0000	0.0000	0.0000;
	1022	1	0	0	0	0	1	1.0141114	-35.992005	115	1	1.1	0.9	19.0200	0.0000	0.0000	0.0000;
	1023	2	0	0	0	0	1	1.0100019	-27.098212	13.8	1	1.1	0.9	19.0200	0.0000	0.0000	0.0000;
	1024	1	63.04	17.86	0	0	1	0.9963759	-38.003667	115	1	1.1	0.9	19.0200	0.0000	0.0000	0.0000;
	1025	1	0	0	0	0	1	1.0222515	-33.191124	115	1	1.1	0.9	19.0200	0.0000	0.0000	0.0000;
	1026	2	0	0	0	0	1	1.0000019	-23.710298	13.8	1	1.1	0.9	19.0200	0.0000	0.0000	0.0000;
	1027	1	101.21	28.68	0	75	1	1.0174926	-44.825862	115	1	1.1	0.9	19.0200	0.0000	0.0000	0.0000;
	1028	1	10.01	2.84	0	0	1	1.0168175	-37.559386	115	1	1.1	0.9	19.0200	0.0000	0.0000	0.0000;
	1029	1	83.18	23.57	0	40	1	1.0138751	-43.837467	115	1	1.1	0.9	19.0200	0.0000	0.0000	0.0000;
	1030	1	24.63	6.98	0	0	1	1.0316581	-32.067385	115	1	1.1	0.9	19.0200	0.0000	0.0000	0.0000;
	1031	1	9.25	2.62	0	0	1	1.0286969	-36.47435	115	1	1.1	0.9	19.0200	0.0000	0.0000	0.0000;
	1032	1	0	0	0	0	1	1.0184841	-30.580508	115	1	1.1	0.9	19.0200	0.0000	0.0000	0.0000;
	1033	2	0	0	0	20	1	1.0402506	-34.971392	230	1	1.1	0.9	19.0200	0.0000	0.0000	0.0000;
	1034	1	0	0	0	0	1	1.0071474	-33.283986	115	1	1.1	0.9	19.0200	0.0000	0.0000	0.0000;
	1035	2	0	0	0	0	1	1.0000019	-29.994923	13.8	1	1.1	0.9	19.0200	0.0000	0.0000	0.0000;
	1036	1	13.6	3.85	0	0	1	1.0066117	-30.877771	115	1	1.1	0.9	19.0200	0.0000	0.0000	0.0000;
	1037	1	102.24	28.97	0	0	1	0.9801118	-41.462585	115	1	1.1	0.9	19.0200	0.0000	0.0000	0.0000;
	1038	1	0	0	0	0	1	1.0318435	-26.147771	115	1	1.1	0.9	19.0200	0.0000	0.0000	0.0000;
	1039	2	0	0	0	0	1	1.0116809	-20.900692	22	1	1.1	0.9	19.0200	0.0000	0.0000	0.0000;
	1040	1	44.36	12.57	0	0	1	0.9960494	-39.324261	115	1	1.1	0.9	19.0200	0.0000	0.0000	0.0000;
	1041	1	0	0	0	0	1	1.0060886	-34.154573	115	1	1.1	0.9	19.0200	0.0000	0.0000	0.0000;
	1042	2	0	0	0	0	1	1.0060886	-34.154573	13.8	1	1.1	0.9	19.0200	0.0000	0.0000	0.0000;
	1043	2	0	0	0	0	1	1.0000019	-30.919415	13.8	1	1.1	0.9	19.0200	0.0000	0.0000	0.0000;
	1044	1	14.68	4.16	0	0	1	1.0175401	-44.03704	115	1	1.1	0.9	19.0200	0.0000	0.0000	0.0000;
	1045	1	98.56	27.93	0	0	1	0.9839425	-43.406282	115	1	1.1	0.9	19.0200	0.0000	0.0000	0.0000;
	1046	1	11.08	3.14	0	12	1	1.0487448	-40.006444	115	1	1.1	0.9	19.0200	0.0000	0.0000	0.0000;
	1047	1	0	0	0	0	1	1.013627	-32.115076	115	1	1.1	0.9	19.0200	0.0000	0.0000	0.0000;
	1048	2	0	0	0	0	1	1.013627	-32.115076	18	1	1.1	0.9	19.0200	0.0000	0.0000	0.0000;
	1049	2	0	0	0	0	1	1.013627	-32.115076	18	1	1.1	0.9	19.0200	0.0000	0.0000	0.0000;
	1050	2	0	0	0	0	1	1.0026727	-27.081075	18	1	1.1	0.9	19.0200	0.0000	0.0000	0.0000;
	1051	2	0	0	0	0	1	1.0000018	-25.587908	18	1	1.1	0.9	19.0200	0.0000	0.0000	0.0000;
	1052	2	0	0	0	0	1	1.0060643	-27.942076	18	1	1.1	0.9	19.0200	0.0000	0.0000	0.0000;
	1053	2	0	0	0	0	1	1.039588	-35.935735	230	1	1.1	0.9	19.0200	0.0000	0.0000	0.0000;
	1054	1	14.99	4.25	0	0	1	1.0164491	-41.551805	115	1	1.1	0.9	19.0200	0.0000	0.0000	0.0000;
	1055	1	3.98	1.13	0	0	1	1.0047829	-37.842164	115	1	1.1	0.9	19.0200	0.0000	0.0000	0.0000;
	1056	1	0	0	0	80	1	1.0347143	-40.965652	115	1	1.1	0.9	19.0200	0.0000	0.0000	0.0000;
	1057	2	0	0	0	0	1	1.0347143	-40.965652	18	1	1.1	0.9	19.0200	0.0000	0.0000	0.0000;
	1058	1	13.46	3.81	0	0	1	1.0437828	-29.356584	115	1	1.1	0.9	19.0200	0.0000	0.0000	0.0000;
	1059	2	0	0	0	0	1	1.0437828	-29.356584	22	1	1.1	0.9	19.0200	0.0000	0.0000	0.0000;
	1060	2	0	0	0	0	1	1.0437828	-29.356584	22	1	1.1	0.9	19.0200	0.0000	0.0000	0.0000;
	1061	1	0	0	0	0	1	1.0134121	-36.32162	115	1	1.1	0.9	19.0200	0.0000	0.0000	0.0000;
	1062	2	0	0	0	0	1	1.0134121	-36.32162	13.8	1	1.1	0.9	19.0200	0.0000	0.0000	0.0000;
	1063	2	0	0	0	0	1	1.0134121	-36.32162	13.8	1	1.1	0.9	19.0200	0.0000	0.0000	0.0000;
	1064	1	123.76	35.07	0	0	1	0.9776781	-43.11079	115	1	1.1	0.9	19.0200	0.0000	0.0000	0.0000;
	1065	1	0	0	0	0	1	1.0092785	-34.007686	115	1	1.1	0.9	19.0200	0.0000	0.0000	0.0000;
	1066	2	0	0	0	0	1	1.0000019	-26.500284	13.8	1	1.1	0.9	19.0200	0.0000	0.0000	0.0000;
	1067	1	101.55	28.77	0	0	1	1.0029525	-34.70952	115	1	1.1	0.9	19.0200	0.0000	0.0000	0.0000;
	1068	1	59.4	16.83	0	0	1	0.9877473	-35.060411	115	1	1.1	0.9	19.0200	0.0000	0.0000	0.0000;
	1069	1	0	0	0	0	1	1.0402963	-26.98373	115	1	1.1	0.9	19.0200	0.0000	0.0000	0.0000;
	1070	2	0	0	0	0	1	1.0400018	-22.515481	13.8	1	1.1	0.9	19.0200	0.0000	0.0000	0.0000;
	1071	1	91.46	25.91	0	0	1	0.9918108	-40.455437	115	1	1.1	0.9	19.0200	0.0000	0.0000	0.0000;
	1072	2	0	0	0	0	1	1.0100019	-31.093495	18	1	1.1	0.9	19.0200	0.0000	0.0000	0.0000;
	1073	2	0	0	0	0	1	1.0100019	-24.686639	18	1	1.1	0.9	19.0200	0.0000	0.0000	0.0000;
	1074	2	0	0	0	0	1	1.0100019	-26.735057	18	1	1.1	0.9	19.0200	0.0000	0.0000	0.0000;
	1075	2	0	0	0	0	1	1.0100019	-29.499246	18	1	1.1	0.9	19.0200	0.0000	0.0000	0.0000;
	1076	2	0	0	0	0	1	0.9918108	-40.455437	18	1	1.1	0.9	19.0200	0.0000	0.0000	0.0000;
	1077	2	0	0	0	0	1	0.9918108	-40.455437	18	1	1.1	0.9	19.0200	0.0000	0.0000	0.0000;
	1078	2	0	0	0	0	1	1.0100019	-30.019951	18	1	1.1	0.9	19.0200	0.0000	0.0000	0.0000;
	1079	2	0	0	0	0	1	1.0157093	-58.095849	500	1	1.1	0.9	19.0200	0.0000	0.0000	0.0000;
	1080	2	0	0	0	0	1	1.0100019	-29.436208	18	1	1.1	0.9	19.0200	0.0000	0.0000	0.0000;
	1081	2	0	0	0	140	1	1.0468495	-37.23107	230	1	1.1	0.9	19.0200	0.0000	0.0000	0.0000;
	1082	2	0	0	0	0	1	1.0355681	-24.391382	115	1	1.1	0.9	19.0200	0.0000	0.0000	0.0000;
	1083	1	39.95	11.32	0	26.15	1	1.0339934	-28.410923	115	1	1.1	0.9	19.0200	0.0000	0.0000	0.0000;
	1084	2	0	0	0	0	1	1.0296365	-35.407399	115	1	1.1	0.9	19.0200	0.0000	0.0000	0.0000;
	1085	1	21.3	6.03	0	0	1	1.0153154	-34.08942	115	1	1.1	0.9	19.0200	0.0000	0.0000	0.0000;
	1086	1	39.67	11.24	0	30	1	1.0234648	-36.301901	115	1	1.1	0.9	19.0200	0.0000	0.0000	0.0000;
	1087	1	0.91	0.26	0	30	1	1.0579788	-33.940284	115	1	1.1	0.9	19.0200	0.0000	0.0000	0.0000;
	1088	2	0	0	0	0	1	1.0000018	-30.289056	115	1	1.1	0.9	19.0200	0.0000	0.0000	0.0000;
	1089	1	40.6	11.5	0	0	1	0.9877202	-40.839902	115	1	1.1	0.9	19.0200	0.0000	0.0000	0.0000;
	1090	2	0	0	0	0	1	1.0200019	-34.91703	115	1	1.1	0.9	19.0200	0.0000	0.0000	0.0000;
	1091	1	11.62	3.29	0	0	1	1.0257007	-51.229654	161	1	1.1	0.9	19.0200	0.0000	0.0000	0.0000;
	2001	1	48.36	13.7	0	0	2	1.0038647	-81.960305	161	1	1.1	0.9	19.0200	0.0000	0.0000	0.0000;
	2002	1	0	0	0	0	2	1.0132439	-83.380296	500	1	1.1	0.9	19.0200	0.0000	0.0000	0.0000;
	2003	1	0	0	0	0	2	1.011941	-85.617021	161	1	1.1	0.9	19.0200	0.0000	0.0000	0.0000;
	2004	2	0	0	0	0	2	1.0132439	-83.380296	13.8	1	1.1	0.9	19.0200	0.0000	0.0000	0.0000;
	2005	2	0	0	0	0	2	1.0132439	-83.380296	13.8	1	1.1	0.9	19.0200	0.0000	0.0000	0.0000;
	2006	2	0	0	0	0	2	1.0132439	-83.380296	13.8	1	1.1	0.9	19.0200	0.0000	0.0000	0.0000;
	2007	1	9.54	2.7	0	0	2	1.0048114	-81.723108	161	1	1.1	0.9	19.0200	0.0000	0.0000	0.0000;
	2008	1	8.06	2.28	0	0	2	1.0165653	-53.231758	161	1	1.1	0.9	19.0200	0.0000	0.0000	0.0000;
	2009	1	39.14	11.09	0	120	2	1.0221723	-65.795456	161	1	1.1	0.9	19.0200	0.0000	0.0000	0.0000;
	2010	1	56.81	16.09	0	20	2	1.0180662	-56.607575	161	1	1.1	0.9	19.0200	0.0000	0.0000	0.0000;
	2011	1	0	0	0	0	2	1.0389139	-52.615411	500	1	1.1	0.9	19.0200	0.0000	0.0000	0.0000;
	2012	1	0	0	0	0	2	1.0272491	-50.3621	161	1	1.1	0.9	19.0200	0.0000	0.0000	0.0000;
	2013	2	0	0	0	0	2	1.0305551	-50.27588	18	1	1.1	0.9	19.0200	0.0000	0.0000	0.0000;
	2014	1	25.43	7.2	0	0	2	1.015033	-53.753005	161	1	1.1	0.9	19.0200	0.0000	0.0000	0.0000;
	2015	1	4.69	1.33	0	0	2	1.0105278	-84.405512	161	1	1.1	0.9	19.0200	0.0000	0.0000	0.0000;
	2016	1	69.27	19.63	0	0	2	1.0111101	-91.646007	161	1	1.1	0.9	19.0200	0.0000	0.0000	0.0000;
	2017	1	0	0	0	-200	2	1.0291146	-52.710614	500	1	1.1	0.9	19.0200	0.0000	0.0000	0.0000;
	2018	1	0	0	0	0	2	1.0270523	-51.932097	161	1	1.1	0.9	19.0200	0.0000	0.0000	0.0000;
	2019	2	0	0	0	0	2	1.0291146	-52.710614	20	1	1.1	0.9	19.0200	0.0000	0.0000	0.0000;
	2020	1	47.97	13.59	0	0	2	0.9958255	-65.478062	161	1	1.1	0.9	19.0200	0.0000	0.0000	0.0000;
	2021	1	0	0	0	0	2	1.0157704	-78.720263	500	1	1.1	0.9	19.0200	0.0000	0.0000	0.0000;
	2022	1	11.56	3.28	0	0	2	1.0120405	-80.627654	161	1	1.1	0.9	19.0200	0.0000	0.0000	0.0000;
	2023	2	0	0	0	0	2	1.0200022	-77.154092	13.8	1	1.1	0.9	19.0200	0.0000	0.0000	0.0000;
	2024	2	0	0	0	0	2	1.0200022	-76.488017	13.8	1	1.1	0.9	19.0200	0.0000	0.0000	0.0000;
	2025	1	39.62	11.23	0	0	2	0.9945823	-64.685993	161	1	1.1	0.9	19.0200	0.0000	0.0000	0.0000;
	2026	1	18.57	5.26	0	0	2	1.0265176	-51.590898	161	1	1.1	0.9	19.0200	0.0000	0.0000	0.0000;
	2027	1	3.55	1.01	0	0	2	1.0043728	-82.382194	161	1	1.1	0.9	19.0200	0.0000	0.0000	0.0000;
	2028	1	14.24	4.03	0	0	2	0.9956623	-67.890273	161	1	1.1	0.9	19.0200	0.0000	0.0000	0.0000;
	2029	1	3.2	0.91	0	0	2	1.0206839	-53.083158	161	1	1.1	0.9	19.0200	0.0000	0.0000	0.0000;
	2030	1	47.15	13.36	0	0	2	0.991017	-85.899904	161	1	1.1	0.9	19.0200	0.0000	0.0000	0.0000;
	2031	1	5.77	1.63	0	0	2	1.0201677	-49.636812	161	1	1.1	0.9	19.0200	0.0000	0.0000	0.0000;
	2032	1	3.35	0.95	0	0	2	1.0067953	-81.13124	161	1	1.1	0.9	19.0200	0.0000	0.0000	0.0000;
	2033	1	13.57	3.85	0	0	2	0.9935757	-87.346273	161	1	1.1	0.9	19.0200	0.0000	0.0000	0.0000;
	2034	1	5.34	1.51	0	0	2	1.0090033	-90.997532	161	1	1.1	0.9	19.0200	0.0000	0.0000	0.0000;
	2035	1	4.68	1.33	0	0	2	1.0140504	-50.512508	161	1	1.1	0.9	19.0200	0.0000	0.0000	0.0000;
	2036	1	41.59	11.78	0	0	2	0.9997807	-65.062614	161	1	1.1	0.9	19.0200	0.0000	0.0000	0.0000;
	2037	1	3.5	0.99	0	0	2	1.0218863	-84.811679	161	1	1.1	0.9	19.0200	0.0000	0.0000	0.0000;
	2038	1	2.6	0.74	0	0	2	1.0089645	-86.084394	161	1	1.1	0.9	19.0200	0.0000	0.0000	0.0000;
	2039	1	5.56	1.58	0	0	2	0.9937469	-81.605151	161	1	1.1	0.9	19.0200	0.0000	0.0000	0.0000;
	2040	1	15.9	4.51	0	0	2	1.009572	-81.29656	161	1	1.1	0.9	19.0200	0.0000	0.0000	0.0000;
	2041	1	0	0	0	0	2	1.028159	-48.181793	161	1	1.1	0.9	19.0200	0.0000	0.0000	0.0000;
	2042	2	0	0	0	0	2	1.019567	-45.607214	18	1	1.1	0.9	19.0200	0.0000	0.0000	0.0000;
	2043	1	4.24	1.2	0	0	2	1.0097272	-91.294336	161	1	1.1	0.9	19.0200	0.0000	0.0000	0.0000;
	2044	1	27.4	7.76	0	0	2	1.0173156	-86.817509	161	1	1.1	0.9	19.0200	0.0000	0.0000	0.0000;
	2045	1	22.61	6.4	0	0	2	0.9951798	-66.026543	161	1	1.1	0.9	19.0200	0.0000	0.0000	0.0000;
	2046	1	22.13	6.27	0	0	2	1.0086173	-90.621862	161	1	1.1	0.9	19.0200	0.0000	0.0000	0.0000;
	2047	1	14.96	4.24	0	0	2	1.0107111	-86.509287	161	1	1.1	0.9	19.0200	0.0000	0.0000	0.0000;
	2048	1	6.42	1.82	0	0	2	1.023551	-51.836537	161	1	1.1	0.9	19.0200	0.0000	0.0000	0.0000;
	2049	1	11.57	3.28	0	0	2	1.0184815	-61.42214	161	1	1.1	0.9	19.0200	0.0000	0.0000	0.0000;
	2050	1	3.66	1.04	0	0	2	0.9966674	-85.133139	161	1	1.1	0.9	19.0200	0.0000	0.0000	0.0000;
	2051	1	17.85	5.06	0	0	2	0.9912779	-74.967938	161	1	1.1	0.9	19.0200	0.0000	0.0000	0.0000;
	2052	1	24.84	7.04	0	0	2	1.0177669	-52.407793	161	1	1.1	0.9	19.0200	0.0000	0.0000	0.0000;
	2053	1	29.13	8.25	0	0	2	0.9921962	-80.16295	161	1	1.1	0.9	19.0200	0.0000	0.0000	0.0000;
	2054	1	0	0	0	0	2	0.9981697	-63.71296	500	1	1.1	0.9	19.0200	0.0000	0.0000	0.0000;
	2055	1	49.62	14.06	0	0	2	0.997871	-64.540376	161	1	1.1	0.9	19.0200	0.0000	0.0000	0.0000;
	2056	2	0	0	0	0	2	0.9981697	-63.71296	18	1	1.1	0.9	19.0200	0.0000	0.0000	0.0000;
	2057	2	0	0	0	0	2	0.990002	-59.730199	18	1	1.1	0.9	19.0200	0.0000	0.0000	0.0000;
	2058	1	0	0	0	0	2	1.0284777	-47.756265	161	1	1.1	0.9	19.0200	0.0000	0.0000	0.0000;
	2059	2	0	0	0	0	2	1.0184813	-44.410712	13.8	1	1.1	0.9	19.0200	0.0000	0.0000	0.0000;
	2060	1	3.8	1.08	0	0	2	0.999791	-83.867116	161	1	1.1	0.9	19.0200	0.0000	0.0000	0.0000;
	2061	1	0	0	0	0	2	1.0210181	-57.818564	161	1	1.1	0.9	19.0200	0.0000	0.0000	0.0000;
	2062	2	0	0	0	0	2	1.0200021	-55.521734	18	1	1.1	0.9	19.0200	0.0000	0.0000	0.0000;
	2063	1	65.62	18.59	0	40	2	1.0097888	-89.996929	161	1	1.1	0.9	19.0200	0.0000	0.0000	0.0000;
	2064	1	10.05	2.85	0	0	2	1.0053247	-82.232905	161	1	1.1	0.9	19.0200	0.0000	0.0000	0.0000;
	2065	1	78.36	22.2	0	100	2	1.0254274	-86.86182	161	1	1.1	0.9	19.0200	0.0000	0.0000	0.0000;
	2066	1	7.11	2.02	0	0	2	1.0138235	-47.483572	161	1	1.1	0.9	19.0200	0.0000	0.0000	0.0000;
	2067	1	53.97	15.29	0	0	2	0.9928208	-64.585446	161	1	1.1	0.9	19.0200	0.0000	0.0000	0.0000;
	2068	1	5.76	1.63	0	0	2	0.999241	-62.455439	161	1	1.1	0.9	19.0200	0.0000	0.0000	0.0000;
	2069	1	21.92	6.21	0	120	2	1.025604	-90.802831	161	1	1.1	0.9	19.0200	0.0000	0.0000	0.0000;
	2070	1	0	0	0	0	2	1.0012958	-62.00093	161	1	1.1	0.9	19.0200	0.0000	0.0000	0.0000;
	2071	2	0	0	0	0	2	1.000002	-58.323024	18	1	1.1	0.9	19.0200	0.0000	0.0000	0.0000;
	2072	1	9.71	2.75	0	0	2	1.0192216	-88.931357	161	1	1.1	0.9	19.0200	0.0000	0.0000	0.0000;
	2073	1	0	0	0	0	2	1.0154483	-44.891366	161	1	1.1	0.9	19.0200	0.0000	0.0000	0.0000;
	2074	1	0	0	0	0	2	1.005664	-42.966995	115	1	1.1	0.9	19.0200	0.0000	0.0000	0.0000;
	2075	1	0	0	0	0	2	1.005664	-42.966995	115	1	1.1	0.9	19.0200	0.0000	0.0000	0.0000;
	2076	2	0	0	0	0	2	1.0207118	-43.984551	24	1	1.1	0.9	19.0200	0.0000	0.0000	0.0000;
	2077	1	0	0	0	0	2	1.0222722	-82.331582	161	1	1.1	0.9	19.0200	0.0000	0.0000	0.0000;
	2078	2	0	0	0	0	2	1.0200023	-79.016398	13.8	1	1.1	0.9	19.0200	0.0000	0.0000	0.0000;
	2079	1	4.48	1.27	0	0	2	1.0210675	-54.795769	161	1	1.1	0.9	19.0200	0.0000	0.0000	0.0000;
	2080	1	16.93	4.8	0	0	2	0.9970248	-78.425741	161	1	1.1	0.9	19.0200	0.0000	0.0000	0.0000;
	2081	1	4.46	1.26	0	0	2	1.0036199	-86.881048	161	1	1.1	0.9	19.0200	0.0000	0.0000	0.0000;
	2082	1	59.03	16.73	0	0	2	1.0040368	-65.405734	161	1	1.1	0.9	19.0200	0.0000	0.0000	0.0000;
	2083	2	0	0	0	0	2	1.0187409	-63.825397	20	1	1.1	0.9	19.0200	0.0000	0.0000	0.0000;
	2084	2	0	0	0	0	2	1.0040368	-65.405734	20	1	1.1	0.9	19.0200	0.0000	0.0000	0.0000;
	2085	2	0	0	0	0	2	1.0040368	-65.405734	20	1	1.1	0.9	19.0200	0.0000	0.0000	0.0000;
	2086	1	2.19	0.62	0	0	2	0.9949029	-80.405548	161	1	1.1	0.9	19.0200	0.0000	0.0000	0.0000;
	2087	1	7.9	2.24	0	0	2	1.0171355	-47.357764	161	1	1.1	0.9	19.0200	0.0000	0.0000	0.0000;
	2088	1	0	0	0	0	2	1.0002965	-62.142239	161	1	1.1	0.9	19.0200	0.0000	0.0000	0.0000;
	2089	2	0	0	0	0	2	1.000002	-58.539875	24	1	1.1	0.9	19.0200	0.0000	0.0000	0.0000;
	2090	1	2.42	0.69	0	0	2	1.0048007	-82.986487	161	1	1.1	0.9	19.0200	0.0000	0.0000	0.0000;
	2091	1	17.05	4.83	0	0	2	1.0146716	-54.056549	161	1	1.1	0.9	19.0200	0.0000	0.0000	0.0000;
	2092	1	24.11	6.83	0	0	2	1.0086856	-88.328188	161	1	1.1	0.9	19.0200	0.0000	0.0000	0.0000;
	2093	1	0	0	0	0	2	1.0276172	-51.106193	161	1	1.1	0.9	19.0200	0.0000	0.0000	0.0000;
	2094	2	0	0	0	0	2	1.0276172	-51.106193	13.8	1	1.1	0.9	19.0200	0.0000	0.0000	0.0000;
	2095	2	0	0	0	0	2	1.0276172	-51.106193	13.8	1	1.1	0.9	19.0200	0.0000	0.0000	0.0000;
	2096	1	0	0	0	-100	2	1.0232148	-48.145422	500	1	1.1	0.9	19.0200	0.0000	0.0000	0.0000;
	2097	1	0	0	0	0	2	1.022072	-47.54257	230	1	1.1	0.9	19.0200	0.0000	0.0000	0.0000;
	2098	1	0	0	0	0	2	1.0268075	-50.648142	161	1	1.1	0.9	19.0200	0.0000	0.0000	0.0000;
	2099	2	0	0	0	0	2	1.0227441	-48.002426	18	1	1.1	0.9	19.0200	0.0000	0.0000	0.0000;
	2100	2	0	0	0	0	2	1.020002	-45.525714	18	1	1.1	0.9	19.0200	0.0000	0.0000	0.0000;
	2101	1	0	0	0	0	2	1.0126115	-84.426428	500	1	1.1	0.9	19.0200	0.0000	0.0000	0.0000;
	2102	1	0	0	0	0	2	1.013031	-85.811675	161	1	1.1	0.9	19.0200	0.0000	0.0000	0.0000;
	2103	2	0	0	0	0	2	1.0126115	-84.426428	20	1	1.1	0.9	19.0200	0.0000	0.0000	0.0000;
	2104	2	0	0	0	0	2	1.0126115	-84.426428	20	1	1.1	0.9	19.0200	0.0000	0.0000	0.0000;
	2105	2	0	0	0	0	2	1.0126115	-84.426428	20	1	1.1	0.9	19.0200	0.0000	0.0000	0.0000;
	2106	1	14.4	4.08	0	0	2	0.991911	-87.971697	161	1	1.1	0.9	19.0200	0.0000	0.0000	0.0000;
	2107	1	74.15	21.01	0	0	2	1.0074623	-86.653809	161	1	1.1	0.9	19.0200	0.0000	0.0000	0.0000;
	2108	1	2.14	0.61	0	0	2	0.9990936	-63.604978	161	1	1.1	0.9	19.0200	0.0000	0.0000	0.0000;
	2109	1	33.81	9.58	0	0	2	1.0083326	-66.959751	161	1	1.1	0.9	19.0200	0.0000	0.0000	0.0000;
	2110	1	8.59	2.43	0	50	2	1.0254854	-83.432321	161	1	1.1	0.9	19.0200	0.0000	0.0000	0.0000;
	2111	1	13.95	3.95	0	0	2	0.994246	-69.102928	161	1	1.1	0.9	19.0200	0.0000	0.0000	0.0000;
	2112	1	4.54	1.29	0	0	2	0.9928456	-70.077361	161	1	1.1	0.9	19.0200	0.0000	0.0000	0.0000;
	2113	1	0	0	0	0	2	1.0157657	-78.274667	500	1	1.1	0.9	19.0200	0.0000	0.0000	0.0000;
	2114	1	70.78	20.05	0	0	2	1.0134221	-79.5408	161	1	1.1	0.9	19.0200	0.0000	0.0000	0.0000;
	2115	2	0	0	0	0	2	1.0068934	-74.285876	13.8	1	1.1	0.9	19.0200	0.0000	0.0000	0.0000;
	2116	2	0	0	0	0	2	1.0115472	-76.207712	13.8	1	1.1	0.9	19.0200	0.0000	0.0000	0.0000;
	2117	2	0	0	0	0	2	1.0041519	-73.647417	13.8	1	1.1	0.9	19.0200	0.0000	0.0000	0.0000;
	2118	2	0	0	0	0	2	1.0027906	-73.140424	13.8	1	1.1	0.9	19.0200	0.0000	0.0000	0.0000;
	2119	2	0	0	0	0	2	1.010459	-75.755776	13.8	1	1.1	0.9	19.0200	0.0000	0.0000	0.0000;
	2120	2	0	0	0	0	2	1.0100022	-73.380128	13.8	1	1.1	0.9	19.0200	0.0000	0.0000	0.0000;
	2121	1	2.33	0.66	0	0	2	1.0083036	-81.917632	161	1	1.1	0.9	19.0200	0.0000	0.0000	0.0000;
	2122	1	6.72	1.9	0	0	2	0.9987774	-83.079334	161	1	1.1	0.9	19.0200	0.0000	0.0000	0.0000;
	2123	2	0	0	0	0	2	1.0286738	-47.526039	161	1	1.1	0.9	19.0200	0.0000	0.0000	0.0000;
	2124	1	21.29	6.03	0	0	2	0.9905928	-89.022412	161	1	1.1	0.9	19.0200	0.0000	0.0000	0.0000;
	2125	1	4.06	1.15	0	0	2	0.994774	-88.839903	161	1	1.1	0.9	19.0200	0.0000	0.0000	0.0000;
	2126	1	14.24	4.03	0	0	2	1.0112541	-88.23268	161	1	1.1	0.9	19.0200	0.0000	0.0000	0.0000;
	2127	2	0	0	0	-150	2	1.0400021	-54.489834	500	1	1.1	0.9	19.0200	0.0000	0.0000	0.0000;
	2128	1	0	0	0	0	2	1.0300645	-52.992992	161	1	1.1	0.9	19.0200	0.0000	0.0000	0.0000;
	2129	1	6.63	1.88	0	0	2	0.9949591	-87.874911	161	1	1.1	0.9	19.0200	0.0000	0.0000	0.0000;
	2130	1	0	0	0	0	2	1.0009146	-62.16901	161	1	1.1	0.9	19.0200	0.0000	0.0000	0.0000;
	2131	1	0	0	0	0	2	0.9954984	-59.491499	115	1	1.1	0.9	19.0200	0.0000	0.0000	0.0000;
	2132	1	11.94	3.38	0	10	2	1.0114402	-61.229511	115	1	1.1	0.9	19.0200	0.0000	0.0000	0.0000;
	2133	1	5.68	1.61	0	0	2	1.0168473	-81.616916	161	1	1.1	0.9	19.0200	0.0000	0.0000	0.0000;
	3001	1	0	0	0	0	3	1.0215453	-61.636815	230	1	1.1	0.9	19.0200	0.0000	0.0000	0.0000;
	3002	1	112.86	31.98	0	0	3	1.0104115	-64.008851	115	1	1.1	0.9	19.0200	0.0000	0.0000	0.0000;
	3003	1	0	0	0	0	3	1.016652	-37.493023	115	1	1.1	0.9	19.0200	0.0000	0.0000	0.0000;
	3004	2	0	0	0	0	3	1.0117671	-35.900158	18	1	1.1	0.9	19.0200	0.0000	0.0000	0.0000;
	3005	1	7.34	2.08	0	0	3	1.0363852	-63.863663	115	1	1.1	0.9	19.0200	0.0000	0.0000	0.0000;
	3006	1	7.35	2.08	0	0	3	1.0010435	-46.332734	115	1	1.1	0.9	19.0200	0.0000	0.0000	0.0000;
	3007	1	14.96	4.24	0	0	3	1.0151678	-43.980755	115	1	1.1	0.9	19.0200	0.0000	0.0000	0.0000;
	3008	1	19.81	5.61	0	0	3	1.0033718	-54.828361	115	1	1.1	0.9	19.0200	0.0000	0.0000	0.0000;
	3009	1	12.54	3.55	0	0	3	1.0283504	-48.515933	115	1	1.1	0.9	19.0200	0.0000	0.0000	0.0000;
	3010	1	4.67	1.32	0	0	3	1.0142124	-62.90589	115	1	1.1	0.9	19.0200	0.0000	0.0000	0.0000;
	3011	1	27.14	7.69	0	0	3	1.0291029	-68.630883	115	1	1.1	0.9	19.0200	0.0000	0.0000	0.0000;
	3012	1	0.56	0.16	0	0	3	1.0303283	-67.927864	115	1	1.1	0.9	19.0200	0.0000	0.0000	0.0000;
	3013	1	64.56	18.29	0	65	3	1.0203304	-47.723244	115	1	1.1	0.9	19.0200	0.0000	0.0000	0.0000;
	3014	1	22	6.23	0	0	3	1.0233558	-65.025409	115	1	1.1	0.9	19.0200	0.0000	0.0000	0.0000;
	3015	1	5.36	1.52	0	0	3	1.0132357	-36.422987	115	1	1.1	0.9	19.0200	0.0000	0.0000	0.0000;
	3016	1	0	0	0	0	3	1.0120516	-41.077283	115	1	1.1	0.9	19.0200	0.0000	0.0000	0.0000;
	3017	2	0	0	0	0	3	1.0100019	-35.884366	18	1	1.1	0.9	19.0200	0.0000	0.0000	0.0000;
	3018	1	0	0	0	0	3	1.0349662	-46.569559	230	1	1.1	0.9	19.0200	0.0000	0.0000	0.0000;
	3019	1	0	0	0	20	3	1.0315577	-48.217358	115	1	1.1	0.9	19.0200	0.0000	0.0000	0.0000;
	3020	2	0	0	0	0	3	1.0300018	-42.462958	13.8	1	1.1	0.9	19.0200	0.0000	0.0000	0.0000;
	3021	1	1.94	0.55	0	0	3	1.0003278	-55.417957	115	1	1.1	0.9	19.0200	0.0000	0.0000	0.0000;
	3022	1	24.59	6.97	0	0	3	0.9970725	-37.680292	115	1	1.1	0.9	19.0200	0.0000	0.0000	0.0000;
	3023	1	10.41	2.95	0	45	3	1.0196671	-46.499167	115	1	1.1	0.9	19.0200	0.0000	0.0000	0.0000;
	3024	1	10.13	2.87	0	0	3	1.0290743	-48.600935	115	1	1.1	0.9	19.0200	0.0000	0.0000	0.0000;
	3025	1	13.67	3.87	0	0	3	1.0056474	-61.0968	115	1	1.1	0.9	19.0200	0.0000	0.0000	0.0000;
	3026	1	0	0	0	0	3	1.0277909	-56.582877	230	1	1.1	0.9	19.0200	0.0000	0.0000	0.0000;
	3027	1	0	0	0	0	3	1.0259399	-56.963332	115	1	1.1	0.9	19.0200	0.0000	0.0000	0.0000;
	3028	2	0	0	0	0	3	1.040002	-53.996975	18	1	1.1	0.9	19.0200	0.0000	0.0000	0.0000;
	3029	1	4.87	1.38	0	0	3	1.02576	-70.248245	115	1	1.1	0.9	19.0200	0.0000	0.0000	0.0000;
	3030	1	129.72	36.75	0	80	3	1.0220002	-57.613964	115	1	1.1	0.9	19.0200	0.0000	0.0000	0.0000;
	3031	1	14.73	4.17	0	0	3	1.0025924	-45.219568	115	1	1.1	0.9	19.0200	0.0000	0.0000	0.0000;
	3032	1	72.86	20.64	0	0	3	1.0043519	-46.351383	115	1	1.1	0.9	19.0200	0.0000	0.0000	0.0000;
	3033	1	0	0	0	0	3	1.0075	-34.68887	115	1	1.1	0.9	19.0200	0.0000	0.0000	0.0000;
	3034	2	0	0	0	0	3	1.0300019	-25.411922	22	1	1.1	0.9	19.0200	0.0000	0.0000	0.0000;
	3035	1	3.47	0.98	0	0	3	1.0086638	-60.659065	115	1	1.1	0.9	19.0200	0.0000	0.0000	0.0000;
	3036	1	5.8	1.64	0	0	3	1.0062284	-58.510243	115	1	1.1	0.9	19.0200	0.0000	0.0000	0.0000;
	3037	1	0	0	0	0	3	1.0249339	-45.179784	230	1	1.1	0.9	19.0200	0.0000	0.0000	0.0000;
	3038	1	0	0	0	0	3	1.0050961	-39.684959	115	1	1.1	0.9	19.0200	0.0000	0.0000	0.0000;
	3039	2	0	0	0	0	3	1.0378662	-42.591547	13.8	1	1.1	0.9	19.0200	0.0000	0.0000	0.0000;
	3040	1	14.61	4.14	0	0	3	1.0020588	-52.482042	115	1	1.1	0.9	19.0200	0.0000	0.0000	0.0000;
	3041	1	0	0	0	0	3	1.017569	-48.551682	230	1	1.1	0.9	19.0200	0.0000	0.0000	0.0000;
	3042	1	8.75	2.48	0	0	3	1.0057345	-37.999542	115	1	1.1	0.9	19.0200	0.0000	0.0000	0.0000;
	3043	2	0	0	0	0	3	1.017569	-48.551682	13.8	1	1.1	0.9	19.0200	0.0000	0.0000	0.0000;
	3044	2	0	0	0	0	3	1.017569	-48.551682	13.8	1	1.1	0.9	19.0200	0.0000	0.0000	0.0000;
	3045	2	0	0	0	0	3	1.017569	-48.551682	13.8	1	1.1	0.9	19.0200	0.0000	0.0000	0.0000;
	3046	1	0	0	0	200	3	1.0124338	-54.25213	230	1	1.1	0.9	19.0200	0.0000	0.0000	0.0000;
	3047	1	0	0	0	110	3	1.0251221	-39.917255	115	1	1.1	0.9	19.0200	0.0000	0.0000	0.0000;
	3048	2	0	0	0	0	3	1.0170761	-61.276146	500	1	1.1	0.9	19.0200	0.0000	0.0000	0.0000;
	3049	1	10.58	3	0	0	3	1.0008025	-49.58213	115	1	1.1	0.9	19.0200	0.0000	0.0000	0.0000;
	3050	1	0	0	0	65	3	1.0601215	-48.707705	230	1	1.1	0.9	19.0200	0.0000	0.0000	0.0000;
	3051	1	145.29	41.17	0	20	3	1.0446043	-50.59434	115	1	1.1	0.9	19.0200	0.0000	0.0000	0.0000;
	3052	1	8.08	2.29	0	0	3	1.0183789	-64.310233	115	1	1.1	0.9	19.0200	0.0000	0.0000	0.0000;
	3053	1	0	0	0	0	3	1.028683	-46.603355	230	1	1.1	0.9	19.0200	0.0000	0.0000	0.0000;
	3054	1	0	0	0	0	3	1.0096151	-45.821495	115	1	1.1	0.9	19.0200	0.0000	0.0000	0.0000;
	3055	2	0	0	0	0	3	1.0400019	-43.717065	13.8	1	1.1	0.9	19.0200	0.0000	0.0000	0.0000;
	3056	2	0	0	0	0	3	1.0400019	-41.133833	13.8	1	1.1	0.9	19.0200	0.0000	0.0000	0.0000;
	3057	2	0	0	0	0	3	1.0400019	-41.299421	13.8	1	1.1	0.9	19.0200	0.0000	0.0000	0.0000;
	3058	1	0	0	0	0	3	1.0326404	-43.013134	230	1	1.1	0.9	19.0200	0.0000	0.0000	0.0000;
	3059	1	0	0	0	0	3	1.0127613	-36.363041	115	1	1.1	0.9	19.0200	0.0000	0.0000	0.0000;
	3060	2	0	0	0	0	3	1.0400019	-35.449849	18	1	1.1	0.9	19.0200	0.0000	0.0000	0.0000;
	3061	2	0	0	0	0	3	1.0400019	-37.619809	18	1	1.1	0.9	19.0200	0.0000	0.0000	0.0000;
	3062	2	0	0	0	0	3	1.0400019	-40.297367	18	1	1.1	0.9	19.0200	0.0000	0.0000	0.0000;
	3063	2	0	0	0	0	3	1.0400019	-39.144968	18	1	1.1	0.9	19.0200	0.0000	0.0000	0.0000;
	3064	1	0	0	0	0	3	1.0190502	-37.778602	115	1	1.1	0.9	19.0200	0.0000	0.0000	0.0000;
	3065	2	0	0	0	0	3	1.0000019	-31.67015	18	1	1.1	0.9	19.0200	0.0000	0.0000	0.0000;
	3066	1	22.03	6.24	0	0	3	1.0136647	-59.557424	115	1	1.1	0.9	19.0200	0.0000	0.0000	0.0000;
	3067	1	0	0	0	0	3	1.0275957	-39.07659	115	1	1.1	0.9	19.0200	0.0000	0.0000	0.0000;
	3068	2	0	0	0	0	3	1.0400019	-36.182634	20	1	1.1	0.9	19.0200	0.0000	0.0000	0.0000;
	3069	1	3.81	1.08	0	0	3	1.0031367	-48.364023	115	1	1.1	0.9	19.0200	0.0000	0.0000	0.0000;
	3070	1	0	0	0	0	3	1.0200254	-40.263829	115	1	1.1	0.9	19.0200	0.0000	0.0000	0.0000;
	3071	2	0	0	0	0	3	1.0055909	-35.690074	24	1	1.1	0.9	19.0200	0.0000	0.0000	0.0000;
	3072	1	5.98	1.7	0	0	3	1.0166789	-56.315357	115	1	1.1	0.9	19.0200	0.0000	0.0000	0.0000;
	3073	1	0	0	0	0	3	1.0150165	-60.12897	115	1	1.1	0.9	19.0200	0.0000	0.0000	0.0000;
	3074	2	0	0	0	0	3	1.0067696	-57.647746	13.8	1	1.1	0.9	19.0200	0.0000	0.0000	0.0000;
	3075	1	12.18	3.45	0	0	3	1.0079442	-57.633545	115	1	1.1	0.9	19.0200	0.0000	0.0000	0.0000;
	3076	1	10.79	3.06	0	0	3	1.0125616	-61.548082	115	1	1.1	0.9	19.0200	0.0000	0.0000	0.0000;
	3077	1	68.66	19.45	0	0	3	1.0053098	-47.184597	115	1	1.1	0.9	19.0200	0.0000	0.0000	0.0000;
	3078	1	0	0	0	0	3	1.0197108	-45.531121	230	1	1.1	0.9	19.0200	0.0000	0.0000	0.0000;
	3079	1	0	0	0	0	3	1.015174	-43.782317	161	1	1.1	0.9	19.0200	0.0000	0.0000	0.0000;
	3080	1	0	0	0	0	3	1.0055377	-40.789358	115	1	1.1	0.9	19.0200	0.0000	0.0000	0.0000;
	3081	2	0	0	0	0	3	1.040002	-39.441256	20	1	1.1	0.9	19.0200	0.0000	0.0000	0.0000;
	3082	1	0	0	0	0	3	1.0190617	-47.474881	230	1	1.1	0.9	19.0200	0.0000	0.0000	0.0000;
	3083	1	0	0	0	0	3	1.013536	-43.487295	115	1	1.1	0.9	19.0200	0.0000	0.0000	0.0000;
	3084	2	0	0	0	0	3	1.0000019	-37.617465	13.8	1	1.1	0.9	19.0200	0.0000	0.0000	0.0000;
	3085	1	0	0	0	0	3	1.0049012	-37.972394	115	1	1.1	0.9	19.0200	0.0000	0.0000	0.0000;
	3086	2	0	0	0	0	3	1.0000019	-31.031579	13.2	1	1.1	0.9	19.0200	0.0000	0.0000	0.0000;
	3087	2	0	0	0	0	3	1.0049012	-37.972394	13.2	1	1.1	0.9	19.0200	0.0000	0.0000	0.0000;
	3088	1	0	0	0	100	3	1.0271633	-52.89408	230	1	1.1	0.9	19.0200	0.0000	0.0000	0.0000;
	3089	1	0	0	0	0	3	1.0280945	-55.493245	161	1	1.1	0.9	19.0200	0.0000	0.0000	0.0000;
	3090	1	0	0	0	0	3	1.0305757	-56.139864	161	1	1.1	0.9	19.0200	0.0000	0.0000	0.0000;
	3091	1	0	0	0	100	3	1.0341548	-57.007136	115	1	1.1	0.9	19.0200	0.0000	0.0000	0.0000;
	3092	2	0	0	0	0	3	1.0400019	-46.089694	13.8	1	1.1	0.9	19.0200	0.0000	0.0000	0.0000;
	3093	1	5.05	1.43	0	0	3	1.0159634	-63.696434	115	1	1.1	0.9	19.0200	0.0000	0.0000	0.0000;
	3094	1	0	0	0	0	3	1.0166436	-42.533269	115	1	1.1	0.9	19.0200	0.0000	0.0000	0.0000;
	3095	2	0	0	0	0	3	1.0400019	-34.612223	18	1	1.1	0.9	19.0200	0.0000	0.0000	0.0000;
	3096	1	0	0	0	0	3	1.0210881	-41.407409	230	1	1.1	0.9	19.0200	0.0000	0.0000	0.0000;
	3097	1	0	0	0	0	3	1.0173746	-39.51663	115	1	1.1	0.9	19.0200	0.0000	0.0000	0.0000;
	3098	2	0	0	0	0	3	1.040002	-32.736436	13.8	1	1.1	0.9	19.0200	0.0000	0.0000	0.0000;
	3099	1	12.08	3.42	0	0	3	1.0041	-48.08037	115	1	1.1	0.9	19.0200	0.0000	0.0000	0.0000;
	3100	1	8.53	2.42	0	0	3	1.0107383	-54.405254	115	1	1.1	0.9	19.0200	0.0000	0.0000	0.0000;
	3101	1	9.43	2.67	0	0	3	1.0097524	-62.448343	115	1	1.1	0.9	19.0200	0.0000	0.0000	0.0000;
	3102	1	75.26	21.32	0	0	3	1.0233256	-57.138697	115	1	1.1	0.9	19.0200	0.0000	0.0000	0.0000;
	3103	1	39.32	11.14	0	0	3	1.0096521	-39.866982	115	1	1.1	0.9	19.0200	0.0000	0.0000	0.0000;
	3104	1	0	0	0	0	3	1.0156294	-62.103278	115	1	1.1	0.9	19.0200	0.0000	0.0000	0.0000;