function mpc = case_ACTIVSg2000
%CASE_ACTIVSG2000  Synthetic Texas 2000-bus power system model.
%
%   This is an entirely synthetic 2000 bus case, geographically situated
%   in the US state of Texas. The case is designed with a 500, 230, 161
%   115, 24, 22, 20, 18, 13.8 and 13.2 kV transmission network to serve
%   a load that roughly mimics the actual population of its geographic
%   footprint. The synthetic transmission system was designed by
%   algorithms described in [1] to be statistically similar to actual
%   transmission system models but without modeling any actual lines.
%
%   When publishing results based on this data, please cite:
%
%   [1] A.B. Birchfield, T. Xu, K.M. Gegner, K.S. Shetye, T.J. Overbye,
%       "Grid Structural Characteristics as Validation Criteria for
%       Synthetic Networks," IEEE Transactions on Power Systems, 2017.
%
%   This is a synthetic power system model that does not represent the
%   actual grid. It was developed as part of the US ARPA-E GRID DATA
%   research project and contains no CEII.
%
%   One-line diagrams and other data formats available at:
%       https://electricgrids.engr.tamu.edu
%
%   May 16, 2017

%   Created from ACTIV_SG_2000.pwb, saved by
%   PowerWorld Simulator, version 20 Beta, build date April 26, 2017,
%   then by MATPOWER 6.0.

%   MATPOWER
%   Copyright (c) 2017 by A.B. Birchfield, T. Xu, K.M. Gegner, K.S. Shetye,
%   and T.J. Overbye
%   Licensed under the Creative Commons Attribution 4.0 International license,
%   http://creativecommons.org/licenses/by/4.0/

%% MATPOWER Case Format : Version 2
mpc.version = '2';

%%-----  Power Flow Data  -----%%
%% system MVA base
mpc.baseMVA = 100;

%% bus data
%	bus_i	type	Pd	Qd	Gs	Bs	area	Vm	Va	baseKV	zone	Vmax	Vmin	lam_P	lam_Q	mu_Vmax	mu_Vmin
mpc.bus = [
	1001	1	20.78	5.89	0	0	1	0.9873564	-4.752389	115	1	1.1	0.9	19.0200	0.0000	0.0000	0.0000;
	1002	1	15.41	4.37	0	0	1	1.037712	-12.809754	115	1	1.1	0.9	19.0200	0.0000	0.0000	0.0000;
	1003	1	0	0	0	0	1	0.9981801	-30.53789	115	1	1.1	0.9	19.0200	0.0000	0.0000	0.0000;
	1004	2	0	0	0	0	1	1.01	-34.250358	230	1	1.1	0.9	19.0200	0.0000	0.0000	0.0000;
	1005	1	0	0	0	0	1	1.0024038	-15.139358	115	1	1.1	0.9	19.0200	0.0000	0.0000	0.0000;
	1006	2	0	0	0	0	1	1	-12.968758	13.8	1	1.1	0.9	19.0200	0.0000	0.0000	0.0000;
	1007	1	7.01	1.99	0	0	1	1.0385959	-12.21527	115	1	1.1	0.9	19.0200	0.0000	0.0000	0.0000;
	1008	1	0	0	0	0	1	1.0340725	-7.369269	115	1	1.1	0.9	19.0200	0.0000	0.0000	0.0000;
	1009	2	0	0	0	0	1	1.0242223	-4.168149	13.8	1	1.1	0.9	19.0200	0.0000	0.0000	0.0000;
	1010	1	0	0	0	0	1	1.0451058	-11.879965	115	1	1.1	0.9	19.0200	0.0000	0.0000	0.0000;
	1011	2	0	0	0	0	1	1.0453636	-10.603113	22	1	1.1	0.9	19.0200	0.0000	0.0000	0.0000;
	1012	1	2.99	0.85	0	9.5	1	1.057939	-26.6226	115	1	1.1	0.9	19.0200	0.0000	0.0000	0.0000;
	1013	1	29.23	8.28	0	0	1	1.0076666	-6.914006	115	1	1.1	0.9	19.0200	0.0000	0.0000	0.0000;
	1014	1	2.22	0.63	0	0	1	1.0192707	-5.553671	115	1	1.1	0.9	19.0200	0.0000	0.0000	0.0000;
	1015	1	7.51	2.13	0	0	1	1.0445062	-12.698004	115	1	1.1	0.9	19.0200	0.0000	0.0000	0.0000;
	1016	1	2.89	0.82	0	30	1	1.0176869	-13.475869	115	1	1.1	0.9	19.0200	0.0000	0.0000	0.0000;
	1017	1	18.34	5.2	0	0	1	0.9868611	-8.182385	115	1	1.1	0.9	19.0200	0.0000	0.0000	0.0000;
	1018	1	0.07	0.02	0	0	1	0.9937205	-7.393988	115	1	1.1	0.9	19.0200	0.0000	0.0000	0.0000;
	1019	1	61.78	17.5	0	142.98	1	1.0073922	-5.526958	115	1	1.1	0.9	19.0200	0.0000	0.0000	0.0000;
	1020	1	0	0	0	76.73	1	1.0118408	-15.229228	115	1	1.1	0.9	19.0200	0.0000	0.0000	0.0000;
	1021	2	0	0	0	0	1	1	-8.572004	13.8	1	1.1	0.9	19.0200	0.0000	0.0000	0.0000;
	1022	1	0	0	0	0	1	1.002466	-30.046089	115	1	1.1	0.9	19.0200	0.0000	0.0000	0.0000;
	1023	2	0	0	0	0	1	1.01	-21.079022	13.8	1	1.1	0.9	19.0200	0.0000	0.0000	0.0000;
	1024	1	63.04	17.86	0	0	1	0.9961299	-6.720719	115	1	1.1	0.9	19.0200	0.0000	0.0000	0.0000;
	1025	1	0	0	0	0	1	1.0104688	-13.890529	115	1	1.1	0.9	19.0200	0.0000	0.0000	0.0000;
	1026	2	0	0	0	0	1	1	-4.314057	13.8	1	1.1	0.9	19.0200	0.0000	0.0000	0.0000;
	1027	1	101.21	28.68	0	75	1	1.0181071	-16.357106	115	1	1.1	0.9	19.0200	0.0000	0.0000	0.0000;
	1028	1	10.01	2.84	0	0	1	1.0057364	-32.458163	115	1	1.1	0.9	19.0200	0.0000	0.0000	0.0000;
	1029	1	83.18	23.57	0	40	1	1.0038452	-16.307803	115	1	1.1	0.9	19.0200	0.0000	0.0000	0.0000;
	1030	1	24.63	6.98	0	0	1	1.0317787	-9.514425	115	1	1.1	0.9	19.0200	0.0000	0.0000	0.0000;
	1031	1	9.25	2.62	0	0	1	1.0218735	-10.291665	115	1	1.1	0.9	19.0200	0.0000	0.0000	0.0000;
	1032	1	0	0	0	0	1	1.0167745	-9.633226	115	1	1.1	0.9	19.0200	0.0000	0.0000	0.0000;
	1033	2	0	0	0	100	1	1.0335309	-13.499527	230	1	1.1	0.9	19.0200	0.0000	0.0000	0.0000;
	1034	1	0	0	0	0	1	1.0049251	-12.462059	115	1	1.1	0.9	19.0200	0.0000	0.0000	0.0000;
	1035	2	0	0	0	0	1	1	-9.172252	13.8	1	1.1	0.9	19.0200	0.0000	0.0000	0.0000;
	1036	1	13.6	3.85	0	0	1	1.0057533	-9.962061	115	1	1.1	0.9	19.0200	0.0000	0.0000	0.0000;
	1037	1	102.24	28.97	0	0	1	0.9820092	-6.974307	115	1	1.1	0.9	19.0200	0.0000	0.0000	0.0000;
	1038	1	0	0	0	0	1	1.0312346	-4.785724	115	1	1.1	0.9	19.0200	0.0000	0.0000	0.0000;
	1039	2	0	0	0	0	1	1.0110543	0.467705	22	1	1.1	0.9	19.0200	0.0000	0.0000	0.0000;
	1040	1	44.36	12.57	0	0	1	0.9982011	-6.515931	115	1	1.1	0.9	19.0200	0.0000	0.0000	0.0000;
	1041	1	0	0	0	0	1	1.0032023	-12.999969	115	1	1.1	0.9	19.0200	0.0000	0.0000	0.0000;
	1042	2	0	0	0	0	1	1.0032023	-12.999969	13.8	1	1.1	0.9	19.0200	0.0000	0.0000	0.0000;
	1043	2	0	0	0	0	1	1	-9.759355	13.8	1	1.1	0.9	19.0200	0.0000	0.0000	0.0000;
	1044	1	14.68	4.16	0	0	1	1.0078644	-29.302606	115	1	1.1	0.9	19.0200	0.0000	0.0000	0.0000;
	1045	1	98.56	27.93	0	0	1	0.9837103	-8.521871	115	1	1.1	0.9	19.0200	0.0000	0.0000	0.0000;
	1046	1	11.08	3.14	0	12	1	1.049452	-25.126959	115	1	1.1	0.9	19.0200	0.0000	0.0000	0.0000;
	1047	1	0	0	0	0	1	1.0062351	-4.749945	115	1	1.1	0.9	19.0200	0.0000	0.0000	0.0000;
	1048	2	0	0	0	0	1	1.0062351	-4.749945	18	1	1.1	0.9	19.0200	0.0000	0.0000	0.0000;
	1049	2	0	0	0	0	1	1.0062351	-4.749945	18	1	1.1	0.9	19.0200	0.0000	0.0000	0.0000;
	1050	2	0	0	0	0	1	1	0.326281	18	1	1.1	0.9	19.0200	0.0000	0.0000	0.0000;
	1051	2	0	0	0	0	1	1	1.807066	18	1	1.1	0.9	19.0200	0.0000	0.0000	0.0000;
	1052	2	0	0	0	0	1	1	-0.524143	18	1	1.1	0.9	19.0200	0.0000	0.0000	0.0000;
	1053	2	0	0	0	0	1	1.0193559	-11.286175	230	1	1.1	0.9	19.0200	0.0000	0.0000	0.0000;
	1054	1	14.99	4.25	0	0	1	1.00961	-20.912983	115	1	1.1	0.9	19.0200	0.0000	0.0000	0.0000;
	1055	1	3.98	1.13	0	0	1	0.9918959	-30.108684	115	1	1.1	0.9	19.0200	0.0000	0.0000	0.0000;
	1056	1	0	0	0	80	1	1.0269105	-16.967148	115	1	1.1	0.9	19.0200	0.0000	0.0000	0.0000;
	1057	2	0	0	0	0	1	1.0269105	-16.967148	18	1	1.1	0.9	19.0200	0.0000	0.0000	0.0000;
	1058	1	13.46	3.81	0	0	1	1.0424789	-10.960935	115	1	1.1	0.9	19.0200	0.0000	0.0000	0.0000;
	1059	2	0	0	0	0	1	1.0424789	-10.960935	22	1	1.1	0.9	19.0200	0.0000	0.0000	0.0000;
	1060	2	0	0	0	0	1	1.0424789	-10.960935	22	1	1.1	0.9	19.0200	0.0000	0.0000	0.0000;
	1061	1	0	0	0	0	1	1.0029666	-16.56862	115	1	1.1	0.9	19.0200	0.0000	0.0000	0.0000;
	1062	2	0	0	0	0	1	1.0029666	-16.56862	13.8	1	1.1	0.9	19.0200	0.0000	0.0000	0.0000;
	1063	2	0	0	0	0	1	1.0029666	-16.56862	13.8	1	1.1	0.9	19.0200	0.0000	0.0000	0.0000;
	1064	1	123.76	35.07	0	0	1	0.979092	-6.815367	115	1	1.1	0.9	19.0200	0.0000	0.0000	0.0000;
	1065	1	0	0	0	0	1	1.0066766	-12.426239	115	1	1.1	0.9	19.0200	0.0000	0.0000	0.0000;
	1066	2	0	0	0	0	1	1	-4.905511	13.8	1	1.1	0.9	19.0200	0.0000	0.0000	0.0000;
	1067	1	101.55	28.77	0	0	1	0.9992613	-13.891493	115	1	1.1	0.9	19.0200	0.0000	0.0000	0.0000;
	1068	1	59.4	16.83	0	0	1	0.9868116	-14.205196	115	1	1.1	0.9	19.0200	0.0000	0.0000	0.0000;
	1069	1	0	0	0	0	1	1.0377574	-7.892361	115	1	1.1	0.9	19.0200	0.0000	0.0000	0.0000;
	1070	2	0	0	0	0	1	1.04	-3.419126	13.8	1	1.1	0.9	19.0200	0.0000	0.0000	0.0000;
	1071	1	91.46	25.91	0	0	1	0.9961785	-2.999598	115	1	1.1	0.9	19.0200	0.0000	0.0000	0.0000;
	1072	2	0	0	0	0	1	1.01	6.337036	18	1	1.1	0.9	19.0200	0.0000	0.0000	0.0000;
	1073	2	0	0	0	0	1	1.01	12.708188	18	1	1.1	0.9	19.0200	0.0000	0.0000	0.0000;
	1074	2	0	0	0	0	1	1.01	10.672054	18	1	1.1	0.9	19.0200	0.0000	0.0000	0.0000;
	1075	2	0	0	0	0	1	1.01	7.918005	18	1	1.1	0.9	19.0200	0.0000	0.0000	0.0000;
	1076	2	0	0	0	0	1	0.9961785	-2.999598	18	1	1.1	0.9	19.0200	0.0000	0.0000	0.0000;
	1077	2	0	0	0	0	1	0.9961785	-2.999598	18	1	1.1	0.9	19.0200	0.0000	0.0000	0.0000;
	1078	2	0	0	0	0	1	1.01	7.397177	18	1	1.1	0.9	19.0200	0.0000	0.0000	0.0000;
	1079	2	0	0	0	0	1	1.01	1.646021	18	1	1.1	0.9	19.0200	0.0000	0.0000	0.0000;
	1080	2	0	0	0	0	1	1.01	7.986456	18	1	1.1	0.9	19.0200	0.0000	0.0000	0.0000;
	1081	2	0	0	0	100	1	1.0230299	-13.498434	230	1	1.1	0.9	19.0200	0.0000	0.0000	0.0000;
	1082	2	0	0	0	0	1	1.0339781	-3.804531	115	1	1.1	0.9	19.0200	0.0000	0.0000	0.0000;
	1083	1	39.95	11.32	0	26.15	1	1.0329807	-6.236716	115	1	1.1	0.9	19.0200	0.0000	0.0000	0.0000;
	1084	2	0	0	0	0	1	1.0146079	-13.079781	115	1	1.1	0.9	19.0200	0.0000	0.0000	0.0000;
	1085	1	21.3	6.03	0	0	1	1.0103507	-5.759733	115	1	1.1	0.9	19.0200	0.0000	0.0000	0.0000;
	1086	1	39.67	11.24	0	30	1	1.0178153	-8.438672	115	1	1.1	0.9	19.0200	0.0000	0.0000	0.0000;
	1087	1	0.91	0.26	0	50	1	1.0630058	-16.958434	115	1	1.1	0.9	19.0200	0.0000	0.0000	0.0000;
	1088	2	0	0	0	0	1	1	-9.4048	115	1	1.1	0.9	19.0200	0.0000	0.0000	0.0000;
	1089	1	40.6	11.5	0	0	1	0.9741866	-28.418416	115	1	1.1	0.9	19.0200	0.0000	0.0000	0.0000;
	1090	2	0	0	0	0	1	1.02	-3.986881	115	1	1.1	0.9	19.0200	0.0000	0.0000	0.0000;
	1091	1	11.62	3.29	0	0	1	1.0207403	-48.982864	161	1	1.1	0.9	19.0200	0.0000	0.0000	0.0000;
	2001	1	48.36	13.7	0	0	2	1.0038369	-83.418245	161	1	1.1	0.9	19.0200	0.0000	0.0000	0.0000;
	2002	1	0	0	0	0	2	1.0132567	-84.917905	500	1	1.1	0.9	19.0200	0.0000	0.0000	0.0000;
	2003	1	0	0	0	0	2	1.0139444	-87.162413	161	1	1.1	0.9	19.0200	0.0000	0.0000	0.0000;
	2004	2	0	0	0	0	2	1.0132567	-84.917905	13.8	1	1.1	0.9	19.0200	0.0000	0.0000	0.0000;
	2005	2	0	0	0	0	2	1.0132567	-84.917905	13.8	1	1.1	0.9	19.0200	0.0000	0.0000	0.0000;
	2006	2	0	0	0	0	2	1.0132567	-84.917905	13.8	1	1.1	0.9	19.0200	0.0000	0.0000	0.0000;
	2007	1	9.54	2.7	0	0	2	1.004968	-83.187982	161	1	1.1	0.9	19.0200	0.0000	0.0000	0.0000;
	2008	1	8.06	2.28	0	0	2	1.0143612	-51.652867	161	1	1.1	0.9	19.0200	0.0000	0.0000	0.0000;
	2009	1	39.14	11.09	0	187	2	1.0407211	-64.805578	161	1	1.1	0.9	19.0200	0.0000	0.0000	0.0000;
	2010	1	56.81	16.09	0	20	2	1.0155694	-54.580677	161	1	1.1	0.9	19.0200	0.0000	0.0000	0.0000;
	2011	1	0	0	0	0	2	1.0386952	-51.425592	500	1	1.1	0.9	19.0200	0.0000	0.0000	0.0000;
	2012	1	0	0	0	0	2	1.0264556	-49.093604	161	1	1.1	0.9	19.0200	0.0000	0.0000	0.0000;
	2013	2	0	0	0	0	2	1.0303343	-49.085075	18	1	1.1	0.9	19.0200	0.0000	0.0000	0.0000;
	2014	1	25.43	7.2	0	0	2	1.0118954	-51.990915	161	1	1.1	0.9	19.0200	0.0000	0.0000	0.0000;
	2015	1	4.69	1.33	0	0	2	0.9966507	-85.280086	161	1	1.1	0.9	19.0200	0.0000	0.0000	0.0000;
	2016	1	69.27	19.63	0	0	2	1.0279401	-93.326592	161	1	1.1	0.9	19.0200	0.0000	0.0000	0.0000;
	2017	1	0	0	0	-200	2	1.0278129	-51.311442	500	1	1.1	0.9	19.0200	0.0000	0.0000	0.0000;
	2018	1	0	0	0	0	2	1.0260555	-50.575073	161	1	1.1	0.9	19.0200	0.0000	0.0000	0.0000;
	2019	2	0	0	0	0	2	1.0278129	-51.311442	20	1	1.1	0.9	19.0200	0.0000	0.0000	0.0000;
	2020	1	47.97	13.59	0	0	2	0.9963863	-64.308217	161	1	1.1	0.9	19.0200	0.0000	0.0000	0.0000;
	2021	1	0	0	0	0	2	1.0155787	-80.165997	500	1	1.1	0.9	19.0200	0.0000	0.0000	0.0000;
	2022	1	11.56	3.28	0	0	2	1.0119758	-82.082269	161	1	1.1	0.9	19.0200	0.0000	0.0000	0.0000;
	2023	2	0	0	0	0	2	1.02	-78.599654	13.8	1	1.1	0.9	19.0200	0.0000	0.0000	0.0000;
	2024	2	0	0	0	0	2	1.02	-77.933422	13.8	1	1.1	0.9	19.0200	0.0000	0.0000	0.0000;
	2025	1	39.62	11.23	0	0	2	0.9943709	-63.44603	161	1	1.1	0.9	19.0200	0.0000	0.0000	0.0000;
	2026	1	18.57	5.26	0	0	2	1.0260402	-50.384359	161	1	1.1	0.9	19.0200	0.0000	0.0000	0.0000;
	2027	1	3.55	1.01	0	0	2	1.0043874	-83.843714	161	1	1.1	0.9	19.0200	0.0000	0.0000	0.0000;
	2028	1	14.24	4.03	0	0	2	0.9984509	-66.943667	161	1	1.1	0.9	19.0200	0.0000	0.0000	0.0000;
	2029	1	3.2	0.91	0	0	2	1.0168798	-51.168453	161	1	1.1	0.9	19.0200	0.0000	0.0000	0.0000;
	2030	1	47.15	13.36	0	0	2	0.9918451	-87.410583	161	1	1.1	0.9	19.0200	0.0000	0.0000	0.0000;
	2031	1	5.77	1.63	0	0	2	1.0131343	-46.872696	161	1	1.1	0.9	19.0200	0.0000	0.0000	0.0000;
	2032	1	3.35	0.95	0	0	2	1.006874	-82.590978	161	1	1.1	0.9	19.0200	0.0000	0.0000	0.0000;
	2033	1	13.57	3.85	0	0	2	0.9944776	-88.877107	161	1	1.1	0.9	19.0200	0.0000	0.0000	0.0000;
	2034	1	5.34	1.51	0	0	2	1.0212431	-92.621429	161	1	1.1	0.9	19.0200	0.0000	0.0000	0.0000;
	2035	1	4.68	1.33	0	0	2	1.00713	-47.695614	161	1	1.1	0.9	19.0200	0.0000	0.0000	0.0000;
	2036	1	41.59	11.78	0	0	2	1.0029246	-63.874381	161	1	1.1	0.9	19.0200	0.0000	0.0000	0.0000;
	2037	1	3.5	0.99	0	0	2	1.0058114	-85.678954	161	1	1.1	0.9	19.0200	0.0000	0.0000	0.0000;
	2038	1	2.6	0.74	0	0	2	1.010803	-87.629556	161	1	1.1	0.9	19.0200	0.0000	0.0000	0.0000;
	2039	1	5.56	1.58	0	0	2	0.9856556	-82.462142	161	1	1.1	0.9	19.0200	0.0000	0.0000	0.0000;
	2040	1	15.9	4.51	0	0	2	1.0095342	-82.751277	161	1	1.1	0.9	19.0200	0.0000	0.0000	0.0000;
	2041	1	0	0	0	0	2	1.0274017	-46.918182	161	1	1.1	0.9	19.0200	0.0000	0.0000	0.0000;
	2042	2	0	0	0	0	2	1.0188017	-44.339778	18	1	1.1	0.9	19.0200	0.0000	0.0000	0.0000;
	2043	1	4.24	1.2	0	0	2	1.0238811	-92.942492	161	1	1.1	0.9	19.0200	0.0000	0.0000	0.0000;
	2044	1	27.4	7.76	0	0	2	1.0002399	-88.033881	161	1	1.1	0.9	19.0200	0.0000	0.0000	0.0000;
	2045	1	22.61	6.4	0	0	2	0.9961652	-64.903388	161	1	1.1	0.9	19.0200	0.0000	0.0000	0.0000;
	2046	1	22.13	6.27	0	0	2	1.018811	-92.21976	161	1	1.1	0.9	19.0200	0.0000	0.0000	0.0000;
	2047	1	14.96	4.24	0	0	2	1.013784	-88.06194	161	1	1.1	0.9	19.0200	0.0000	0.0000	0.0000;
	2048	1	6.42	1.82	0	0	2	1.0180143	-49.435819	161	1	1.1	0.9	19.0200	0.0000	0.0000	0.0000;
	2049	1	11.57	3.28	0	0	2	1.0275456	-60.173427	161	1	1.1	0.9	19.0200	0.0000	0.0000	0.0000;
	2050	1	3.66	1.04	0	0	2	0.9970191	-86.62166	161	1	1.1	0.9	19.0200	0.0000	0.0000	0.0000;
	2051	1	17.85	5.06	0	0	2	0.9875768	-74.786365	161	1	1.1	0.9	19.0200	0.0000	0.0000	0.0000;
	2052	1	24.84	7.04	0	0	2	1.0162996	-50.98033	161	1	1.1	0.9	19.0200	0.0000	0.0000	0.0000;
	2053	1	29.13	8.25	0	0	2	0.9877865	-81.459217	161	1	1.1	0.9	19.0200	0.0000	0.0000	0.0000;
	2054	1	0	0	0	0	2	0.9966053	-62.449867	500	1	1.1	0.9	19.0200	0.0000	0.0000	0.0000;
	2055	1	49.62	14.06	0	0	2	0.9978446	-63.308291	161	1	1.1	0.9	19.0200	0.0000	0.0000	0.0000;
	2056	2	0	0	0	0	2	0.9966053	-62.449867	18	1	1.1	0.9	19.0200	0.0000	0.0000	0.0000;
	2057	2	0	0	0	0	2	0.99	-58.462561	18	1	1.1	0.9	19.0200	0.0000	0.0000	0.0000;
	2058	1	0	0	0	0	2	1.0277583	-46.501012	161	1	1.1	0.9	19.0200	0.0000	0.0000	0.0000;
	2059	2	0	0	0	0	2	1.0177523	-43.150728	13.8	1	1.1	0.9	19.0200	0.0000	0.0000	0.0000;
	2060	1	3.8	1.08	0	0	2	1.0000556	-85.350246	161	1	1.1	0.9	19.0200	0.0000	0.0000	0.0000;
	2061	1	0	0	0	0	2	1.0235754	-56.326498	161	1	1.1	0.9	19.0200	0.0000	0.0000	0.0000;
	2062	2	0	0	0	0	2	1.02	-54.029828	18	1	1.1	0.9	19.0200	0.0000	0.0000	0.0000;
	2063	1	65.62	18.59	0	40	2	1.0178578	-91.577566	161	1	1.1	0.9	19.0200	0.0000	0.0000	0.0000;
	2064	1	10.05	2.85	0	0	2	1.005407	-83.701116	161	1	1.1	0.9	19.0200	0.0000	0.0000	0.0000;
	2065	1	78.36	22.2	0	0	2	0.9968021	-87.823267	161	1	1.1	0.9	19.0200	0.0000	0.0000	0.0000;
	2066	1	7.11	2.02	0	0	2	1.0060316	-44.338664	161	1	1.1	0.9	19.0200	0.0000	0.0000	0.0000;
	2067	1	53.97	15.29	0	0	2	0.992355	-63.334451	161	1	1.1	0.9	19.0200	0.0000	0.0000	0.0000;
	2068	1	5.76	1.63	0	0	2	0.9977238	-61.158435	161	1	1.1	0.9	19.0200	0.0000	0.0000	0.0000;
	2069	1	21.92	6.21	0	179.77	2	1.045991	-92.57276	161	1	1.1	0.9	19.0200	0.0000	0.0000	0.0000;
	2070	1	0	0	0	0	2	0.9992188	-60.685211	161	1	1.1	0.9	19.0200	0.0000	0.0000	0.0000;
	2071	2	0	0	0	0	2	1	-57.002356	18	1	1.1	0.9	19.0200	0.0000	0.0000	0.0000;
	2072	1	9.71	2.75	0	0	2	1.0312462	-90.641858	161	1	1.1	0.9	19.0200	0.0000	0.0000	0.0000;
	2073	1	0	0	0	0	2	1.0074669	-41.487799	161	1	1.1	0.9	19.0200	0.0000	0.0000	0.0000;
	2074	1	0	0	0	0	2	0.9996455	-39.434368	115	1	1.1	0.9	19.0200	0.0000	0.0000	0.0000;
	2075	1	0	0	0	0	2	0.9996455	-39.434368	115	1	1.1	0.9	19.0200	0.0000	0.0000	0.0000;
	2076	2	0	0	0	0	2	1.0127697	-40.566635	24	1	1.1	0.9	19.0200	0.0000	0.0000	0.0000;
	2077	1	0	0	0	0	2	1.0156777	-83.094291	161	1	1.1	0.9	19.0200	0.0000	0.0000	0.0000;
	2078	2	0	0	0	0	2	1.02	-79.768015	13.8	1	1.1	0.9	19.0200	0.0000	0.0000	0.0000;
	2079	1	4.48	1.27	0	0	2	1.017168	-52.619149	161	1	1.1	0.9	19.0200	0.0000	0.0000	0.0000;
	2080	1	16.93	4.8	0	0	2	0.9912028	-78.695244	161	1	1.1	0.9	19.0200	0.0000	0.0000	0.0000;
	2081	1	4.46	1.26	0	0	2	1.0051577	-88.426352	161	1	1.1	0.9	19.0200	0.0000	0.0000	0.0000;
	2082	1	59.03	16.73	0	0	2	1.0106432	-64.263237	161	1	1.1	0.9	19.0200	0.0000	0.0000	0.0000;
	2083	2	0	0	0	0	2	1.02	-62.686654	20	1	1.1	0.9	19.0200	0.0000	0.0000	0.0000;
	2084	2	0	0	0	0	2	1.0106432	-64.263237	20	1	1.1	0.9	19.0200	0.0000	0.0000	0.0000;
	2085	2	0	0	0	0	2	1.0106432	-64.263237	20	1	1.1	0.9	19.0200	0.0000	0.0000	0.0000;
	2086	1	2.19	0.62	0	0	2	0.9875409	-81.033008	161	1	1.1	0.9	19.0200	0.0000	0.0000	0.0000;
	2087	1	7.9	2.24	0	0	2	1.0093552	-44.262949	161	1	1.1	0.9	19.0200	0.0000	0.0000	0.0000;
	2088	1	0	0	0	0	2	0.9986416	-60.838612	161	1	1.1	0.9	19.0200	0.0000	0.0000	0.0000;
	2089	2	0	0	0	0	2	1	-57.232266	24	1	1.1	0.9	19.0200	0.0000	0.0000	0.0000;
	2090	1	2.42	0.69	0	0	2	1.0048957	-84.454447	161	1	1.1	0.9	19.0200	0.0000	0.0000	0.0000;
	2091	1	17.05	4.83	0	0	2	1.00972	-51.642948	161	1	1.1	0.9	19.0200	0.0000	0.0000	0.0000;
	2092	1	24.11	6.83	0	0	2	1.0141485	-89.89697	161	1	1.1	0.9	19.0200	0.0000	0.0000	0.0000;
	2093	1	0	0	0	0	2	1.0267383	-49.796064	161	1	1.1	0.9	19.0200	0.0000	0.0000	0.0000;
	2094	2	0	0	0	0	2	1.0267383	-49.796064	13.8	1	1.1	0.9	19.0200	0.0000	0.0000	0.0000;
	2095	2	0	0	0	0	2	1.0267383	-49.796064	13.8	1	1.1	0.9	19.0200	0.0000	0.0000	0.0000;
	2096	1	0	0	0	-100	2	1.0195662	-46.00996	500	1	1.1	0.9	19.0200	0.0000	0.0000	0.0000;
	2097	1	0	0	0	0	2	1.0171548	-45.232513	230	1	1.1	0.9	19.0200	0.0000	0.0000	0.0000;
	2098	1	0	0	0	0	2	1.0218675	-48.391444	161	1	1.1	0.9	19.0200	0.0000	0.0000	0.0000;
	2099	2	0	0	0	0	2	1.02	-45.866506	18	1	1.1	0.9	19.0200	0.0000	0.0000	0.0000;
	2100	2	0	0	0	0	2	1.02	-43.38451	18	1	1.1	0.9	19.0200	0.0000	0.0000	0.0000;
	2101	1	0	0	0	0	2	1.0123709	-85.989232	500	1	1.1	0.9	19.0200	0.0000	0.0000	0.0000;
	2102	1	0	0	0	0	2	1.0126281	-87.374209	161	1	1.1	0.9	19.0200	0.0000	0.0000	0.0000;
	2103	2	0	0	0	0	2	1.0123709	-85.989232	20	1	1.1	0.9	19.0200	0.0000	0.0000	0.0000;
	2104	2	0	0	0	0	2	1.0123709	-85.989232	20	1	1.1	0.9	19.0200	0.0000	0.0000	0.0000;
	2105	2	0	0	0	0	2	1.0123709	-85.989232	20	1	1.1	0.9	19.0200	0.0000	0.0000	0.0000;
	2106	1	14.4	4.08	0	0	2	0.9933333	-89.520208	161	1	1.1	0.9	19.0200	0.0000	0.0000	0.0000;
	2107	1	74.15	21.01	0	0	2	1.0069819	-88.224686	161	1	1.1	0.9	19.0200	0.0000	0.0000	0.0000;
	2108	1	2.14	0.61	0	0	2	0.9846121	-62.979925	161	1	1.1	0.9	19.0200	0.0000	0.0000	0.0000;
	2109	1	33.81	9.58	0	0	2	1.0205148	-65.970083	161	1	1.1	0.9	19.0200	0.0000	0.0000	0.0000;
	2110	1	8.59	2.43	0	86.84	2	1.0177037	-84.260384	161	1	1.1	0.9	19.0200	0.0000	0.0000	0.0000;
	2111	1	13.95	3.95	0	0	2	0.9844174	-69.924722	161	1	1.1	0.9	19.0200	0.0000	0.0000	0.0000;
	2112	1	4.54	1.29	0	0	2	0.9933142	-69.352002	161	1	1.1	0.9	19.0200	0.0000	0.0000	0.0000;
	2113	1	0	0	0	0	2	1.0155437	-79.710019	500	1	1.1	0.9	19.0200	0.0000	0.0000	0.0000;
	2114	1	70.78	20.05	0	0	2	1.0133107	-80.983793	161	1	1.1	0.9	19.0200	0.0000	0.0000	0.0000;
	2115	2	0	0	0	0	2	1.0066682	-75.719343	13.8	1	1.1	0.9	19.0200	0.0000	0.0000	0.0000;
	2116	2	0	0	0	0	2	1.011324	-77.642094	13.8	1	1.1	0.9	19.0200	0.0000	0.0000	0.0000;
	2117	2	0	0	0	0	2	1.0039257	-75.080573	13.8	1	1.1	0.9	19.0200	0.0000	0.0000	0.0000;
	2118	2	0	0	0	0	2	1.0025637	-74.573333	13.8	1	1.1	0.9	19.0200	0.0000	0.0000	0.0000;
	2119	2	0	0	0	0	2	1.0102354	-77.189944	13.8	1	1.1	0.9	19.0200	0.0000	0.0000	0.0000;
	2120	2	0	0	0	0	2	1.01	-74.81444	13.8	1	1.1	0.9	19.0200	0.0000	0.0000	0.0000;
	2121	1	2.33	0.66	0	0	2	1.0083103	-83.376926	161	1	1.1	0.9	19.0200	0.0000	0.0000	0.0000;
	2122	1	6.72	1.9	0	0	2	0.9991243	-84.560071	161	1	1.1	0.9	19.0200	0.0000	0.0000	0.0000;
	2123	2	0	0	0	0	2	1.0279303	-46.264419	161	1	1.1	0.9	19.0200	0.0000	0.0000	0.0000;
	2124	1	21.29	6.03	0	0	2	0.9928821	-90.592689	161	1	1.1	0.9	19.0200	0.0000	0.0000	0.0000;
	2125	1	4.06	1.15	0	0	2	0.993883	-90.456755	161	1	1.1	0.9	19.0200	0.0000	0.0000	0.0000;
	2126	1	14.24	4.03	0	0	2	0.993356	-89.487891	161	1	1.1	0.9	19.0200	0.0000	0.0000	0.0000;
	2127	2	0	0	0	-150	2	1.04	-53.329149	500	1	1.1	0.9	19.0200	0.0000	0.0000	0.0000;
	2128	1	0	0	0	0	2	1.0297547	-51.809712	161	1	1.1	0.9	19.0200	0.0000	0.0000	0.0000;
	2129	1	6.63	1.88	0	0	2	0.9960575	-89.420071	161	1	1.1	0.9	19.0200	0.0000	0.0000	0.0000;
	2130	1	0	0	0	0	2	0.9862185	-61.190091	161	1	1.1	0.9	19.0200	0.0000	0.0000	0.0000;
	2131	1	0	0	0	0	2	0.9790982	-57.85787	115	1	1.1	0.9	19.0200	0.0000	0.0000	0.0000;
	2132	1	11.94	3.38	0	10	2	0.9944313	-59.65406	115	1	1.1	0.9	19.0200	0.0000	0.0000	0.0000;
	2133	1	5.68	1.61	0	0	2	1.0103053	-82.28376	161	1	1.1	0.9	19.0200	0.0000	0.0000	0.0000;
	3001	1	0	0	0	0	3	1.020897	-61.36142	230	1	1.1	0.9	19.0200	0.0000	0.0000	0.0000;
	3002	1	112.86	31.98	0	0	3	1.0090752	-63.646035	115	1	1.1	0.9	19.0200	0.0000	0.0000	0.0000;
	3003	1	0	0	0	0	3	1.0159309	-31.835775	115	1	1.1	0.9	19.0200	0.0000	0.0000	0.0000;
	3004	2	0	0	0	0	3	1.0110419	-30.240642	18	1	1.1	0.9	19.0200	0.0000	0.0000	0.0000;
	3005	1	7.34	2.08	0	0	3	1.0324333	-62.724529	115	1	1.1	0.9	19.0200	0.0000	0.0000	0.0000;
	3006	1	7.35	2.08	0	0	3	0.9961494	-42.344004	115	1	1.1	0.9	19.0200	0.0000	0.0000	0.0000;
	3007	1	14.96	4.24	0	0	3	1.0149577	-39.253952	115	1	1.1	0.9	19.0200	0.0000	0.0000	0.0000;
	3008	1	19.81	5.61	0	0	3	1.0098982	-49.712458	115	1	1.1	0.9	19.0200	0.0000	0.0000	0.0000;
	3009	1	12.54	3.55	0	0	3	1.0406748	-37.154143	115	1	1.1	0.9	19.0200	0.0000	0.0000	0.0000;
	3010	1	4.67	1.32	0	0	3	1.0083081	-61.534494	115	1	1.1	0.9	19.0200	0.0000	0.0000	0.0000;
	3011	1	27.14	7.69	0	0	3	1.0282742	-68.455327	115	1	1.1	0.9	19.0200	0.0000	0.0000	0.0000;
	3012	1	0.56	0.16	0	0	3	1.0295718	-67.746934	115	1	1.1	0.9	19.0200	0.0000	0.0000	0.0000;
	3013	1	64.56	18.29	0	95	3	1.0335059	-43.128376	115	1	1.1	0.9	19.0200	0.0000	0.0000	0.0000;
	3014	1	22	6.23	0	0	3	1.021711	-64.896195	115	1	1.1	0.9	19.0200	0.0000	0.0000	0.0000;
	3015	1	5.36	1.52	0	0	3	1.0127084	-31.370279	115	1	1.1	0.9	19.0200	0.0000	0.0000	0.0000;
	3016	1	0	0	0	0	3	1.0114215	-35.664482	115	1	1.1	0.9	19.0200	0.0000	0.0000	0.0000;
	3017	2	0	0	0	0	3	1.01	-30.469261	18	1	1.1	0.9	19.0200	0.0000	0.0000	0.0000;
	3018	1	0	0	0	0	3	1.0383504	-35.933154	230	1	1.1	0.9	19.0200	0.0000	0.0000	0.0000;
	3019	1	0	0	0	80	3	1.0435162	-37.425829	115	1	1.1	0.9	19.0200	0.0000	0.0000	0.0000;
	3020	2	0	0	0	0	3	1.03	-31.836287	13.8	1	1.1	0.9	19.0200	0.0000	0.0000	0.0000;
	3021	1	1.94	0.55	0	0	3	0.9865627	-52.950047	115	1	1.1	0.9	19.0200	0.0000	0.0000	0.0000;
	3022	1	24.59	6.97	0	0	3	0.9929406	-33.268796	115	1	1.1	0.9	19.0200	0.0000	0.0000	0.0000;
	3023	1	10.41	2.95	0	65	3	1.0222117	-42.867932	115	1	1.1	0.9	19.0200	0.0000	0.0000	0.0000;
	3024	1	10.13	2.87	0	0	3	1.0412073	-37.623548	115	1	1.1	0.9	19.0200	0.0000	0.0000	0.0000;
	3025	1	13.67	3.87	0	0	3	1.0087314	-57.773458	115	1	1.1	0.9	19.0200	0.0000	0.0000	0.0000;
	3026	1	0	0	0	0	3	1.0079891	-54.098674	230	1	1.1	0.9	19.0200	0.0000	0.0000	0.0000;
	3027	1	0	0	0	0	3	1.0058925	-53.985583	115	1	1.1	0.9	19.0200	0.0000	0.0000	0.0000;
	3028	2	0	0	0	0	3	1.0210553	-51.413556	18	1	1.1	0.9	19.0200	0.0000	0.0000	0.0000;
	3029	1	4.87	1.38	0	0	3	1.0315253	-70.783537	115	1	1.1	0.9	19.0200	0.0000	0.0000	0.0000;
	3030	1	129.72	36.75	0	80	3	1.0411871	-48.789558	115	1	1.1	0.9	19.0200	0.0000	0.0000	0.0000;
	3031	1	14.73	4.17	0	0	3	0.999681	-40.183957	115	1	1.1	0.9	19.0200	0.0000	0.0000	0.0000;
	3032	1	72.86	20.64	0	0	3	1.0017326	-41.682316	115	1	1.1	0.9	19.0200	0.0000	0.0000	0.0000;
	3033	1	0	0	0	0	3	1.0045558	-30.68313	115	1	1.1	0.9	19.0200	0.0000	0.0000	0.0000;
	3034	2	0	0	0	0	3	1.03	-21.384677	22	1	1.1	0.9	19.0200	0.0000	0.0000	0.0000;
	3035	1	3.47	0.98	0	0	3	1.0176745	-56.413369	115	1	1.1	0.9	19.0200	0.0000	0.0000	0.0000;
	3036	1	5.8	1.64	0	0	3	1.0148723	-53.867746	115	1	1.1	0.9	19.0200	0.0000	0.0000	0.0000;
	3037	1	0	0	0	0	3	1.007839	-41.378168	230	1	1.1	0.9	19.0200	0.0000	0.0000	0.0000;
	3038	1	0	0	0	0	3	0.9968206	-35.286337	115	1	1.1	0.9	19.0200	0.0000	0.0000	0.0000;
	3039	2	0	0	0	0	3	1.0209496	-38.702363	13.8	1	1.1	0.9	19.0200	0.0000	0.0000	0.0000;
	3040	1	14.61	4.14	0	0	3	1.0198444	-45.266489	115	1	1.1	0.9	19.0200	0.0000	0.0000	0.0000;
	3041	1	0	0	0	0	3	0.9834829	-42.455284	230	1	1.1	0.9	19.0200	0.0000	0.0000	0.0000;
	3042	1	8.75	2.48	0	0	3	0.9765171	-26.498335	115	1	1.1	0.9	19.0200	0.0000	0.0000	0.0000;
	3043	2	0	0	0	0	3	0.9834829	-42.455284	13.8	1	1.1	0.9	19.0200	0.0000	0.0000	0.0000;
	3044	2	0	0	0	0	3	0.9834829	-42.455284	13.8	1	1.1	0.9	19.0200	0.0000	0.0000	0.0000;
	3045	2	0	0	0	0	3	0.9834829	-42.455284	13.8	1	1.1	0.9	19.0200	0.0000	0.0000	0.0000;
	3046	1	0	0	0	200	3	0.9835259	-51.07445	230	1	1.1	0.9	19.0200	0.0000	0.0000	0.0000;
	3047	1	0	0	0	200	3	1.0407412	-34.420374	115	1	1.1	0.9	19.0200	0.0000	0.0000	0.0000;
	3048	2	0	0	0	0	3	0.9944662	-59.902351	500	1	1.1	0.9	19.0200	0.0000	0.0000	0.0000;
	3049	1	10.58	3	0	0	3	0.9942106	-46.18683	115	1	1.1	0.9	19.0200	0.0000	0.0000	0.0000;
	3050	1	0	0	0	65	3	1.051985	-36.085569	230	1	1.1	0.9	19.0200	0.0000	0.0000	0.0000;
	3051	1	145.29	41.17	0	80	3	1.0610743	-37.622603	115	1	1.1	0.9	19.0200	0.0000	0.0000	0.0000;
	3052	1	8.08	2.29	0	0	3	1.0146122	-63.457405	115	1	1.1	0.9	19.0200	0.0000	0.0000	0.0000;
	3053	1	0	0	0	0	3	1.0080852	-41.453184	230	1	1.1	0.9	19.0200	0.0000	0.0000	0.0000;
	3054	1	0	0	0	0	3	1.0009263	-40.659224	115	1	1.1	0.9	19.0200	0.0000	0.0000	0.0000;
	3055	2	0	0	0	0	3	1.0229103	-38.46285	13.8	1	1.1	0.9	19.0200	0.0000	0.0000	0.0000;
	3056	2	0	0	0	0	3	1.033131	-35.848326	13.8	1	1.1	0.9	19.0200	0.0000	0.0000	0.0000;
	3057	2	0	0	0	0	3	1.0335544	-36.029474	13.8	1	1.1	0.9	19.0200	0.0000	0.0000	0.0000;
	3058	1	0	0	0	0	3	1.00546	-34.101129	230	1	1.1	0.9	19.0200	0.0000	0.0000	0.0000;
	3059	1	0	0	0	0	3	0.9809495	-21.696355	115	1	1.1	0.9	19.0200	0.0000	0.0000	0.0000;
	3060	2	0	0	0	0	3	1.0374681	-26.338768	18	1	1.1	0.9	19.0200	0.0000	0.0000	0.0000;
	3061	2	0	0	0	0	3	1.0301703	-28.524721	18	1	1.1	0.9	19.0200	0.0000	0.0000	0.0000;
	3062	2	0	0	0	0	3	1.0198598	-31.26784	18	1	1.1	0.9	19.0200	0.0000	0.0000	0.0000;
	3063	2	0	0	0	0	3	1.0250573	-30.08918	18	1	1.1	0.9	19.0200	0.0000	0.0000	0.0000;
	3064	1	0	0	0	0	3	1.0192018	-31.037275	115	1	1.1	0.9	19.0200	0.0000	0.0000	0.0000;
	3065	2	0	0	0	0	3	1	-24.929332	18	1	1.1	0.9	19.0200	0.0000	0.0000	0.0000;
	3066	1	22.03	6.24	0	0	3	1.032539	-53.988803	115	1	1.1	0.9	19.0200	0.0000	0.0000	0.0000;
	3067	1	0	0	0	0	3	1.0267868	-33.959001	115	1	1.1	0.9	19.0200	0.0000	0.0000	0.0000;
	3068	2	0	0	0	0	3	1.04	-31.063864	20	1	1.1	0.9	19.0200	0.0000	0.0000	0.0000;
	3069	1	3.81	1.08	0	0	3	1.0048337	-43.494713	115	1	1.1	0.9	19.0200	0.0000	0.0000	0.0000;
	3070	1	0	0	0	0	3	1.0193708	-35.224991	115	1	1.1	0.9	19.0200	0.0000	0.0000	0.0000;
	3071	2	0	0	0	0	3	1.0049226	-30.645261	24	1	1.1	0.9	19.0200	0.0000	0.0000	0.0000;
	3072	1	5.98	1.7	0	0	3	1.0391942	-48.269182	115	1	1.1	0.9	19.0200	0.0000	0.0000	0.0000;
	3073	1	0	0	0	0	3	1.0082502	-58.356334	115	1	1.1	0.9	19.0200	0.0000	0.0000	0.0000;
	3074	2	0	0	0	0	3	1	-55.841628	13.8	1	1.1	0.9	19.0200	0.0000	0.0000	0.0000;
	3075	1	12.18	3.45	0	0	3	1.03119	-50.216044	115	1	1.1	0.9	19.0200	0.0000	0.0000	0.0000;
	3076	1	10.79	3.06	0	0	3	1.0060114	-59.933058	115	1	1.1	0.9	19.0200	0.0000	0.0000	0.0000;
	3077	1	68.66	19.45	0	0	3	1.0078518	-42.496282	115	1	1.1	0.9	19.0200	0.0000	0.0000	0.0000;
	3078	1	0	0	0	0	3	1.0026447	-41.764005	230	1	1.1	0.9	19.0200	0.0000	0.0000	0.0000;
	3079	1	0	0	0	0	3	1.0032489	-39.983817	161	1	1.1	0.9	19.0200	0.0000	0.0000	0.0000;
	3080	1	0	0	0	0	3	0.9959006	-36.541421	115	1	1.1	0.9	19.0200	0.0000	0.0000	0.0000;
	3081	2	0	0	0	0	3	1.0315728	-35.535737	20	1	1.1	0.9	19.0200	0.0000	0.0000	0.0000;
	3082	1	0	0	0	0	3	0.9986988	-42.844821	230	1	1.1	0.9	19.0200	0.0000	0.0000	0.0000;
	3083	1	0	0	0	0	3	1.0063494	-38.453023	115	1	1.1	0.9	19.0200	0.0000	0.0000	0.0000;
	3084	2	0	0	0	0	3	1	-32.80491	13.8	1	1.1	0.9	19.0200	0.0000	0.0000	0.0000;
	3085	1	0	0	0	0	3	0.9995477	-33.399864	115	1	1.1	0.9	19.0200	0.0000	0.0000	0.0000;
	3086	2	0	0	0	0	3	1	-26.431808	13.2	1	1.1	0.9	19.0200	0.0000	0.0000	0.0000;
	3087	2	0	0	0	0	3	0.9995477	-33.399864	13.2	1	1.1	0.9	19.0200	0.0000	0.0000	0.0000;
	3088	1	0	0	0	100	3	1.0055621	-49.461172	230	1	1.1	0.9	19.0200	0.0000	0.0000	0.0000;
	3089	1	0	0	0	0	3	1.0067179	-52.456632	161	1	1.1	0.9	19.0200	0.0000	0.0000	0.0000;
	3090	1	0	0	0	0	3	1.0101972	-53.012348	161	1	1.1	0.9	19.0200	0.0000	0.0000	0.0000;
	3091	1	0	0	0	100	3	1.0150621	-53.755766	115	1	1.1	0.9	19.0200	0.0000	0.0000	0.0000;
	3092	2	0	0	0	0	3	1.0351563	-42.494612	13.8	1	1.1	0.9	19.0200	0.0000	0.0000	0.0000;
	3093	1	5.05	1.43	0	0	3	1.0107966	-62.528045	115	1	1.1	0.9	19.0200	0.0000	0.0000	0.0000;
	3094	1	0	0	0	0	3	1.0141426	-37.68182	115	1	1.1	0.9	19.0200	0.0000	0.0000	0.0000;
	3095	2	0	0	0	0	3	1.04	-29.744252	18	1	1.1	0.9	19.0200	0.0000	0.0000	0.0000;
	3096	1	0	0	0	0	3	1.0116272	-37.61351	230	1	1.1	0.9	19.0200	0.0000	0.0000	0.0000;
	3097	1	0	0	0	0	3	1.0063591	-35.173699	115	1	1.1	0.9	19.0200	0.0000	0.0000	0.0000;
	3098	2	0	0	0	0	3	1.04	-28.87469	13.8	1	1.1	0.9	19.0200	0.0000	0.0000	0.0000;
	3099	1	12.08	3.42	0	0	3	1.0014649	-43.546956	115	1	1.1	0.9	19.0200	0.0000	0.0000	0.0000;
	3100	1	8.53	2.42	0	0	3	0.9967766	-50.681051	115	1	1.1	0.9	19.0200	0.0000	0.0000	0.0000;
	3101	1	9.43	2.67	0	0	3	1.0086748	-60.958037	115	1	1.1	0.9	19.0200	0.0000	0.0000	0.0000;
	3102	1	75.26	21.32	0	0	3	1.0049561	-53.895252	115	1	1.1	0.9	19.0200	0.0000	0.0000	0.0000;
	3103	1	39.32	11.14	0	0	3	1.0089088	-34.344131	115	1	1.1	0.9	19.0200	0.0000	0.0000	0.0000;
	3104	1	0	0	0	0	3	1.0141238	-61.197956	115	1	1.1	0.9	19.0200	0.0000	0.0000	0.0000;
	3105	2	0	0	0	0	3	1.0133799	-59.326235	13.2	1	1.1	0.9	19.0200	0.0000	0.0000	0.0000;
	3106	2	0	0	0	0	3	1.0048848	-54.373775	13.2	1	1.1	0.9	19.0200	0.0000	0.0000	0.0000;
	3107	1	14.87	4.21	0	0	3	1.0091432	-63.903148	115	1	1.1	0.9	19.0200	0.0000	0.0000	0.0000;