function mpc = case6468rte
%CASE6468RTE  AC Power flow data for French system.
%   Please see CASEFORMAT for details on the case file format.
%
%   This case accurately represents the size and complexity of French
%   very high voltage and high voltage transmission network.
%   These data are snapshots of French VHV+HV grid in 2013.
%   These data can be used to validate mathematical methods and tools.
%   These data should NOT be used for operation
%   nor planning of the French or European grids.
%
%   When publishing results based on this data, please cite:
%
%     C. Josz, S. Fliscounakis, J. Maeght, and P. Panciatici, "AC Power Flow
%     Data in MATPOWER and QCQP Format: iTesla, RTE Snapshots, and PEGASE"
%     http://arxiv.org/abs/1603.01533
%
%   Contacts:
%     Cédric Josz, Stéphane Fliscounakis, Jean Maeght, Patrick Panciatici
%     firstname.lastname@rte-france.com
%     Réseau de Transport d'Electricité (French Transmission System Operator)
%     Département Expertise Système, Immeuble "Le Colbert"
%     9 rue de la Porte de Buc, 78000 Versailles Cedex, France
%
%   March 3rd, 2016

%   MATPOWER
%   Copyright (c) 2016 by Cédric Josz, Stéphane Fliscounakis, Jean Maeght,
%   and Patrick Panciatici
%   Licensed under the Creative Commons Attribution 4.0 International license,
%   http://creativecommons.org/licenses/by/4.0/

%% MATPOWER Case Format : Version 2
mpc.version = '2';

%%-----  Power Flow Data  -----%%
%% system MVA base
mpc.baseMVA = 100;

%% bus data
%	bus_i	type	Pd	Qd	Gs	Bs	area	Vm	Va	baseKV	zone	Vmax	Vmin
mpc.bus = [
	1	1	0	0	0	0	1	0.982360162	-16.9924109	45	1	1	0.888889;
	2	1	0	0	0	0	1	1.03357339	-12.617296	63	1	1.06349	0.936508;
	3	1	11.7	-1.2	0	0	1	0.982847442	-9.54178066	63	1	1.07937	0.952381;
	4	1	33.8	-8.2	0	0	1	1.06611868	-3.90213962	90	1	1.08889	0.933333;
	5	1	11	-0.9	0	0	1	0.982872119	-29.8927969	63	1	1.06349	0.952381;
	6	1	13	4.3	0	0	1	1.03222939	-15.5443256	63	1	1.07937	0.920635;
	7	1	1	-0.2	0	0	1	1.05987038	-17.5729894	63	1	1.07937	0.920635;
	8	1	0.4	-4.4	0	0	1	1.06971348	-0.192853327	225	1	1.08889	0.888889;
	9	1	16.9	0	0	0	1	1.03236682	-21.5130541	63	1	1.06349	0.936508;
	10	1	0	0	0	0	1	1.06578606	-3.53511699	90	1	1.07778	0.922222;
	11	1	20	-3.1	0	0	1	1.06578583	-3.53511451	90	1	1.07778	0.922222;
	12	1	0	0	0	0	1	0.991391885	3.70767097	63	1	1.07937	0.952381;
	13	1	0	0	0	0	1	1.05441489	-2.34943162	380	1	1.10263	1.05084;
	14	1	37	3.6	0	0	1	1.04768724	-8.23393216	90	1	1.07778	0.977778;
	15	1	0	0	0	0	1	1.02545063	-21.0643444	63	1	1.07937	0.920635;
	16	1	10.3	1.5	0	0	1	1.04945776	-23.5577781	63	1	1.07937	0.920635;
	17	1	11.2	-0.6	0	0	1	1.04996416	-15.5847968	90	1	1.06667	0.977778;
	18	1	0	0	0	0	1	0.921553843	-10.990672	45	1	1	0.888889;
	19	1	1	0	0	0	1	1.02569452	-12.7430969	63	1	1.06349	0.936508;
	20	1	2.3	-18.3	0	0	1	0.922386141	-11.0219232	45	1	1	0.888889;
	21	1	6.5	-1.9	0	0	1	1.04121459	-9.90179602	90	1	1.06667	0.977778;
	22	1	15.2	1.4	0	0	1	1.0019562	-4.57036053	63	1	1.07937	0.952381;
	23	1	29.1	4.6	0	0	1	1.006657	-17.7208694	63	1	1.06349	0.936508;
	24	1	9.7	-2.8	0	0	1	1.06346895	-2.60211418	90	1	1.11111	0.955556;
	25	1	46.5	-6.1	0	0	1	1.09135684	-0.999788965	90	1	1.1	0.944444;
	26	1	20.5	4.7	0	0	1	1.02477314	-7.88570753	90	1	1.06667	0.977778;
	27	1	0	0	0	0	1	1.06682063	-4.11970324	225	1	1.08444	1.00444;
	28	1	0.4	0.9	0	0	1	1.02834601	-13.3067586	63	1	1.07937	0.952381;
	29	1	52.7	1.8	0	0	1	1.01167743	-22.7325495	63	1	1.06349	0.968254;
	30	1	29.8	-1.9	0	0	1	1.06365968	-3.58628596	90	1	1.08889	0.933333;
	31	1	0	0	0	0	1	1.02844026	-14.5718586	63	1	1.06349	0.936508;
	32	1	0	0	0	0	1	1.02538048	-9.48891608	150	1	1.10667	0.9;
	33	1	0	0	0	0	1	1.03986876	-11.0997968	225	1	1.08889	0.933333;
	34	1	0	0	0	0	1	1.03410534	-11.3247484	225	1	1.08889	0.933333;
	35	1	0	0	0	0	1	1.05454522	-7.73479801	380	1	1.10526	1.03947;
	36	1	0	0	0	0	1	1.05846774	-6.42917153	380	1	1.10526	1.03947;
	37	1	2.3	4.4	0	0	1	1.02738953	-17.2538295	63	1	1.07937	0.920635;
	38	1	7	-1	0	0	1	1.06103227	-3.84377259	63	1	1.09524	0.936508;
	39	1	35	-6.8	0	0	1	1.01594027	-16.3550041	90	1	1.07778	0.977778;
	40	1	31.7	0.5	0	0	1	1.04084684	-6.8391508	90	1	1.07778	0.977778;
	41	1	0	0	0	0	1	1.08069851	-5.41204185	225	1	1.09194	1.00444;
	42	1	0	0	0	0	1	1.0954297	7.87766165	63	1	1.13061	0.952381;
	43	1	3.4	2.8	0	0	1	1.05270633	-4.48993014	90	1	1.07778	0.977778;
	44	1	12.4	0	0	0	1	1.00594056	-29.8194874	63	1	1.06349	0.952381;
	45	1	3	2.1	0	0	1	1.01692589	-12.634151	90	1	1.06667	0.977778;
	46	1	0	0	0	0	1	1.0100273	-14.4804058	63	1	1.06349	0.936508;
	47	2	0	0	0	0	1	1.00922109	-14.4711651	63	1	1.06349	0.936508;
	48	1	34	1.3	0	0	1	1.04957921	-3.90252054	90	1	1.07778	0.922222;
	49	1	6.9	-2.5	0	0	1	1.03425801	-10.8024259	63	1	1.06349	0.936508;
	50	1	0	0	0	0	1	1.06027786	-16.7284562	63	1	1.07436	0.936508;
	51	1	0	0	0	0	1	1.04603188	-12.4126923	225	1	1.08889	0.933333;
	52	1	5.8	2.5	0	0	1	1.02216407	-14.3622214	90	1	1.06667	0.977778;
	53	1	0.2	-0.3	0	0	1	1.02177243	-5.58788327	63	1	1.04762	0.952381;
	54	1	0.9	-0.8	0	0	1	1.04651469	-5.31264567	90	1	1.06667	0.977778;
	55	1	30.1	5.4	0	0	1	1.06911736	-5.9911251	225	1	1.08889	1.00444;
	56	1	42.2	6.3	0	0	1	1.05123653	-4.76670164	225	1	1.08889	1.00444;
	57	2	0	0	0	0	1	1.059	-18.944119	63	1	1.07937	0.920635;
	58	1	107.6	28.8	0	0	1	1.06892859	-6.00264999	225	1	1.08889	1.00444;
	59	1	5.2	1.4	0	0	1	0.989827684	-7.3343638	63	1	1.07937	0.952381;
	60	1	0	0	0	0	1	0.998943276	-1.88690126	63	1	1.07937	0.952381;
	61	1	29.6	5.1	0	0	1	0.997465924	-3.77602254	63	1	1.07937	0.952381;
	62	1	0	0	0	0	1	0.999694905	-1.60172008	63	1	1.07937	0.952381;
	63	1	12.8	2	0	0	1	0.993826428	4.48500229	63	1	1.07937	0.952381;
	64	1	47.2	-0.7	0	0	1	1.0705947	1.91724809	225	1	1.08889	0.888889;
	65	1	10	2.9	0	0	1	1.006946	-4.21144264	63	1	1.07937	0.952381;
	66	1	11.1	-9.3	0	0	1	1.04900055	-17.2658053	63	1	1.06349	0.936508;
	67	1	0	0	0	0	1	1.03746815	-8.39981192	63	1	1.07937	0.920635;
	68	1	41.1	-6.8	0	0	1	1.01935997	-13.3684514	63	1	1.06349	0.936508;
	69	1	14.4	-3.2	0	0	1	1.01147201	-33.7215654	63	1	1.06349	0.952381;
	70	1	8.7	0.6	0	0	1	1.00572368	3.9676521	63	1	1.07937	0.952381;
	71	1	55.8	10.7	0	0	1	1.0267104	-6.41569883	63	1	1.04762	0.952381;
	72	1	0	0	0	0	1	1.08655561	0.711980463	225	1	1.08889	1.00444;
	73	1	0	0	0	0	1	1.08655583	0.712358881	225	1	1.08889	1.00444;
	74	1	37.1	-8.7	0	0	1	1.07105686	1.98697526	225	1	1.08889	0.888889;
	75	1	19.3	1.4	0	0	1	1.05921685	-4.29954748	90	1	1.06825	0.977778;
	76	1	6.3	3.2	0	0	1	1.05309569	7.25307841	225	1	1.08889	0.986667;
	77	1	28.9	-5.2	0	0	1	1.03928192	-11.930061	63	1	1.06349	0.936508;
	78	1	0	0	0	0	1	1.05538569	-21.1340497	63	1	1.07937	0.920635;
	79	1	0	0	0	0	1	1.02849409	-3.9338557	63	1	1.04762	0.952381;
	80	1	26.1	-1	0	0	1	1.07157163	-3.87891065	225	1	1.08889	1.00444;
	81	1	26.1	3.5	0	0	1	1.0715771	-3.87858057	225	1	1.08889	1.00444;
	82	1	9.8	-3.2	0	0	1	1.02853529	-11.2656474	63	1	1.06349	0.936508;
	83	1	85	46.2	0	0	1	1.0638075	-5.21546206	225	1	1.08889	1.00444;
	84	1	-1	-1.1	0	0	1	0.999291489	-11.8369094	63	1	1.06349	0.936508;
	85	1	2.3	-0.8	0	0	1	1.04254625	-13.6881562	63	1	1.06349	0.936508;
	86	1	30.3	-3.7	0	0	1	1.01684367	-21.5723849	90	1	1.06667	0.977778;
	87	1	0	0	0	0	1	1.00372387	4.29044423	63	1	1.07937	0.952381;
	88	1	11.5	-3.8	0	0	1	1.03334335	-12.8162347	63	1	1.06349	0.936508;
	89	1	17.7	-4.9	0	0	1	1.05584519	-6.77733659	90	1	1.07778	0.977778;
	90	1	0.7	-0.3	0	0	1	0.921441645	-11.9295133	45	1	1	0.888889;
	91	1	0	0	0	0	1	0.921553843	-10.990672	45	1	1	0.888889;
	92	1	24.7	0.4	0	0	1	1.03495227	-15.8031488	63	1	1.06349	0.968254;
	93	1	2.3	-2.5	0	0	1	0.95187302	-14.3401651	45	1	1	0.888889;
	94	1	13	-4.9	0	0	1	1.05414079	-6.74640487	90	1	1.06667	0.977778;
	95	1	38	3.8	0	0	1	1.02303942	-13.8381791	90	1	1.06667	0.977778;
	96	1	0.9	-0.6	0	0	1	1.0260599	-12.6435397	63	1	1.06349	0.936508;
	97	1	47	0.8	0	0	1	1.04296421	-20.2136851	63	1	1.07937	0.920635;
	98	1	6.6	-2.2	0	0	1	1.03653772	-7.55520074	63	1	1.07937	0.952381;
	99	1	21.9	3.2	0	0	1	0.999827178	-3.33128656	63	1	1.07937	0.952381;
	100	1	46.3	7.4	0	0	1	1.01522499	-17.010418	63	1	1.06349	0.936508;
	101	1	14	-1.5	0	0	1	0.999154657	-12.3028501	63	1	1.06349	0.936508;
	102	2	0	0	0	0	1	1.02	-18.6238254	63	1	1.07937	0.952381;
	103	1	13.2	-4	0	0	1	1.0079984	-1.94551408	63	1	1.07937	0.952381;
	104	1	0	0	0	0	1	1.04193665	0.580020317	225	1	1.08889	0.986667;
	105	1	28.5	-1.6	0	0	1	1.06969934	1.26852595	225	1	1.08889	0.888889;
	106	1	38.8	2.2	0	0	1	1.07961207	-2.19413024	90	1	1.1	0.944444;
	107	1	71.6	4.9	0	0	1	1.06152701	-23.4875083	225	1	1.08444	1.00889;
	108	1	7.9	-4.6	0	0	1	1.06751598	-2.51173574	90	1	1.07778	0.977778;
	109	1	60.6	7.8	0	0	1	1.0369229	-12.9079997	63	1	1.06349	0.936508;
	110	1	0	0	0	0	1	1.02640258	-9.24746227	225	1	1.08889	0.933333;
	111	1	34.2	-7.2	0	0	1	1.00939675	-21.031705	63	1	1.06349	0.968254;
	112	1	0	0	0	0	1	1.03129628	-6.97598986	63	1	1.04762	0.952381;
	113	1	0	0	0	0	1	1.06926066	-4.61981303	225	1	1.08889	1.00444;
	114	1	11.5	-1	0	0	1	1.04825819	-17.1565156	63	1	1.06349	0.936508;
	115	1	0	0	0	0	1	1.05442402	-2.349515	380	1	1.10526	1.05085;
	116	1	0	0	0	0	1	1.05442402	-2.349515	380	1	1.10526	1.05085;
	117	1	13.2	-2.2	0	0	1	1.0165245	-13.6614269	63	1	1.07937	0.952381;
	118	1	2	0.8	0	0	1	1.06107447	-4.06873544	90	1	1.07012	0.977778;
	119	1	35.5	0.7	0	0	1	1.03096497	-6.36943972	63	1	1.06349	0.936508;
	120	1	29.9	-1.3	0	0	1	1.01836144	-17.0457144	63	1	1.06349	0.936508;
	121	1	15.3	3.7	0	0	1	1.0420724	-13.3689812	63	1	1.07937	0.920635;
	122	2	0	0	0	0	1	1.01023281	-2.94306456	63	1	1.07937	0.952381;
	123	1	9	2.7	0	0	1	1.00909715	-3.01405303	63	1	1.07937	0.952381;
	124	1	8.9	-4	0	0	1	1.04750139	-11.6708111	90	1	1.06667	0.977778;
	125	1	4.8	-3.1	0	0	1	1.02525611	-2.72388791	63	1	1.07937	0.952381;
	126	1	-0.3	0.5	0	0	1	1.04300004	-13.5118523	63	1	1.06349	0.936508;
	127	1	6.5	0.4	0	0	1	1.03153449	-8.41516178	63	1	1.04762	0.952381;
	128	1	13.9	5.6	0	0	1	1.02280368	-10.3503702	63	1	1.06349	0.968254;
	129	1	18.8	14.3	0	0	1	1.02022374	-9.12770779	63	1	1.06349	0.968254;
	130	1	0	0	0	0	1	1.04955399	-7.73172169	225	1	1.08444	1.00889;
	131	1	82	2	0	0	1	1.04615594	-17.1645875	225	1	1.08444	1.00889;
	132	2	11.9	0	0	0	1	1.0463591	-16.5763476	90	1	1.07778	0.922222;
	133	1	1.3	0.3	0	0	1	1.01965411	-7.00251139	63	1	1.04762	0.952381;
	134	1	71.7	15.7	0	0	1	1.06193957	-4.86747467	225	1	1.08889	1.00444;
	135	1	0	0	0	0	1	1.06927351	-5.87646291	225	1	1.08889	1.00444;
	136	1	18.8	2.3	0	0	1	1.02710605	-14.2466947	90	1	1.07778	0.977778;
	137	2	13.4	-9.1	0	0	1	1.0143739	-23.4864219	63	1	1.06349	0.968254;
	138	1	0	0	0	0	1	1.00897643	-19.9217542	150	1	1.08	0.966667;
	139	1	8.6	-1	0	0	1	1.03847794	-16.1632784	63	1	1.07937	0.920635;
	140	1	0	0	0	0	1	1.06127289	-13.4702234	225	1	1.08889	1;
	141	1	0	0	0	0	1	1.06994676	-10.7650465	380	1	1.10526	1.05263;
	142	1	15.8	1.3	0	0	1	0.993257128	-6.98517771	63	1	1.07937	0.952381;
	143	1	0	0	0	0	1	1.0334828	-3.41755922	225	1	1.08889	0.986667;
	144	1	0	0	0	-64	1	1.06620776	1.536916	20	1	1.15	0.8;
	145	1	21.2	10	0	0	1	1.06705043	-1.5239046	90	1	1.11111	0.955556;
	146	1	25.6	6.2	0	0	1	1.07097109	2.14454607	225	1	1.08889	0.968889;
	147	1	0	0	0	0	1	1.07783429	4.83523677	380	1	1.10526	1;
	148	1	25	3.6	0	0	1	1.03680277	-16.5944686	63	1	1.06349	0.936508;
	149	1	6.3	2.2	0	0	1	1.02441331	-12.9816416	63	1	1.06349	0.936508;
	150	1	17.9	5.1	0	0	1	1.01454521	-14.0796632	90	1	1.06667	0.977778;
	151	1	41.9	5.6	0	0	1	1.02611775	-14.9997904	63	1	1.06349	0.936508;
	152	1	0	0	0	0	1	1.01211903	-23.1600372	63	1	1.06349	0.968254;
	153	1	34.2	5.9	0	7.7	1	1.01207021	-21.8763344	63	1	1.06349	0.968254;
	154	1	20.4	0.6	0	0	1	1.03225001	-12.0973813	63	1	1.06349	0.936508;
	155	1	0	0	0	0	1	1.05637984	-8.58028661	225	1	1.08889	0.933333;
	156	2	0	0	0	0	1	1.06006444	-22.8241156	63	1	1.07937	0.920635;
	157	1	0	0	0	0	1	1.01210105	-23.1618258	63	1	1.06349	0.968254;
	158	1	-0.1	-2.1	0	0	1	0.894021909	-15.4634349	45	1	1	0.888889;
	159	2	0	0	0	0	1	0.942719036	-12.8864625	45	1	1	0.888889;
	160	1	0	0	0	0	1	1.01267136	-17.2728187	63	1	1.06349	0.936508;
	161	1	29.5	2.3	0	0	1	1.07518951	2.41120156	225	1	1.08889	0.888889;
	162	1	31.5	7.4	0	0	1	1.074975	2.40805165	225	1	1.08889	0.888889;
	163	1	0.4	-1.6	0	0	1	1.03121259	-5.72775953	90	1	1.06667	0.977778;
	164	1	0	0	0	0	1	0.999091135	-2.30402632	63	1	1.07937	0.952381;
	165	1	0	0	0	0	1	0.999091135	-2.30402632	63	1	1.07937	0.952381;
	166	1	11.3	-3.9	0	0	1	1.06633386	-9.58964308	20	1	1.15	0.8;
	167	1	5.8	1.4	0	0	1	1.02745607	-13.2857979	90	1	1.06667	0.977778;
	168	1	7.8	-0.9	0	0	1	1.02810338	-13.3498257	90	1	1.06667	0.977778;
	169	1	0	0	0	0	1	1.06631166	-9.58472758	225	1	1.08642	1.00444;
	170	1	9.1	-1.1	0	0	1	1.0391185	-13.5462848	90	1	1.06667	0.977778;
	171	1	60	6.1	0	0	1	1.05280119	-8.40348049	90	1	1.07778	0.977778;
	172	1	21.4	-1.8	0	0	1	1.04464706	-10.0393541	90	1	1.07778	0.977778;
	173	1	0	0	0	0	1	1.07096512	-6.67809768	225	1	1.08889	1.00444;
	174	1	26.6	6.6	0	0	1	1.08721143	0.0329561429	90	1	1.08889	0.933333;
	175	1	35.7	-1.5	0	0	1	1.08796796	-2.22821436	90	1	1.11111	0.955556;
	176	1	0	0	0	0	1	1.04577	-20.3336069	63	1	1.07937	0.920635;
	177	1	0	0	0	0	1	1.04279529	-17.8272361	63	1	1.07937	0.920635;
	178	2	0	0	0	0	1	1.10160289	-18.7590708	150	1	1.1	0.9;
	179	1	0	0	0	0	1	1.0690417	-5.91848404	225	1	1.08889	1.00444;
	180	1	0	0	0	0	1	1.06904192	-5.91848525	225	1	1.08889	1.00444;
	181	1	0	0	0	-32	1	0.99119725	-8.53756409	20	1	1.15	0.8;
	182	1	0	0	0	-32	1	1.02430166	-8.48875303	20	1	1.15	0.8;
	183	1	0	0	0	0	1	1.03160587	-8.40868435	63	1	1.04762	0.952381;
	184	1	0	0	0	-80	1	1.06904042	-5.91847711	225	1	1.08889	1.00444;
	185	1	12.1	-5.9	0	0	1	1.05191392	-20.0378203	63	1	1.07937	0.920635;
	186	1	16	3.1	0	0	1	1.035067	-8.11398975	63	1	1.06349	0.936508;
	187	1	5.4	0.3	0	0	1	1.01320511	-10.2426835	63	1	1.07937	0.952381;
	188	1	3	0.4	0	0	1	1.04388382	-3.69893779	90	1	1.07778	0.977778;
	189	1	21.9	2.4	0	0	1	0.987391007	-7.67127221	63	1	1.07937	0.952381;
	190	1	1.4	-0.7	0	0	1	1.03279505	-4.71023031	90	1	1.06667	0.977778;
	191	2	0	0	0	0	1	1.07478839	-21.670989	63	1	1.07937	0.920635;
	192	1	12.5	1.1	0	0	1	1.05873673	-18.0373692	63	1	1.07937	0.920635;
	193	2	0	0	0	0	1	0.932029654	-14.2141402	45	1	1	0.888889;
	194	1	12.7	-1.3	0	0	1	1.04107718	-13.7984528	90	1	1.06667	0.977778;
	195	1	7.3	-1.4	0	0	1	1.05731467	-19.1154403	63	1	1.07937	0.920635;
	196	1	7.7	5.3	0	0	1	1.06839555	-5.00603738	225	1	1.08889	1.00444;
	197	2	1.4	-3.2	0	0	1	1.071	-20.1440361	63	1	1.07937	0.920635;
	198	1	0	0	0	0	1	1.08949905	-4.92453751	63	1	1.09743	0.952381;
	199	1	0	0	0	0	1	1.08950054	-4.92458009	63	1	1.09743	0.952381;
	200	1	25	-4.9	0	0	1	1.04260633	-23.4345389	63	1	1.07937	0.920635;
	201	1	8.5	-2.4	0	0	1	1.03841724	-17.8111907	63	1	1.07937	0.920635;
	202	1	9.4	0.4	0	0	1	1.01236523	-18.4568134	90	1	1.06667	0.977778;
	203	1	0	0	0	0	1	1.07452544	-17.9464963	225	1	1.08889	1;
	204	1	52.5	20.6	0	0	1	1.06482495	0.724822597	225	1	1.08889	0.888889;
	205	1	34.3	-1.4	0	0	1	1.01482559	-25.4792649	63	1	1.06349	0.968254;
	206	1	24.7	4.7	0	0	1	1.07970565	2.38160238	90	1	1.1	0.944444;
	207	1	0	0	0	0	1	1.07646325	5.21448666	225	1	1.08889	0.968889;
	208	1	0	0	0	0	1	1.0830718	8.37445383	380	1	1.10526	1;
	209	1	42	2.2	0	0	1	1.02165101	-23.861227	63	1	1.06349	0.968254;
	210	1	26.8	-0.4	0	0	1	0.9999201	-11.39874	63	1	1.06349	0.968254;
	211	1	12	-2	0	0	1	1.04510685	-3.32770131	90	1	1.07778	0.977778;
	212	1	2.9	1.3	0	0	1	1.02975737	-18.7628453	63	1	1.06349	0.968254;
	213	1	42.7	6.6	0	0	1	1.00155055	-16.4704562	63	1	1.06349	0.968254;
	214	1	29.7	13.3	0	0	1	1.00157759	-16.3153255	63	1	1.06349	0.968254;
	215	1	0	0	0	0	1	1.0463311	-16.2593896	225	1	1.08444	1.00889;
	216	1	0	0	0	0	1	1.04626265	-16.2425098	225	1	1.08444	1.00889;
	217	1	33.1	2	0	0	1	1.03745059	-10.99286	90	1	1.07778	0.977778;
	218	1	0	0	0	0	1	1.0617569	-8.2057916	225	1	1.08889	1.00444;
	219	1	15.4	-7.4	0	0	1	1.018964	-1.65202862	63	1	1.06349	0.952381;
	220	1	23.5	-0.6	0	0	1	1.01795572	-11.0698017	90	1	1.06667	0.977778;
	221	1	0.9	-0.9	0	0	1	1.04621838	-5.28439342	90	1	1.06667	0.977778;
	222	1	8.8	-1.3	0	0	1	1.03717723	-13.3444434	90	1	1.06667	0.977778;
	223	1	11	1.5	0	0	1	1.00969336	4.63080381	63	1	1.07937	0.952381;
	224	1	14.1	-11.3	0	0	1	1.03324905	-10.1092201	63	1	1.06349	0.936508;
	225	1	0	0	0	0	1	1.075722	-7.92086761	225	1	1.08889	0.933333;
	226	1	32	-2.3	0	0	1	1.03345115	-18.5141472	63	1	1.07937	0.920635;
	227	2	0	0	0	0	1	1.10155267	-18.7580987	150	1	1.1	0.9;
	228	1	75.7	34.1	0	0	1	1.04131874	-17.6868192	225	1	1.08444	1.00889;
	229	1	74.7	49.1	0	0	1	1.04107974	-17.6834432	225	1	1.08444	1.00889;
	230	1	4	0.2	0	0	1	0.989746646	-33.3163253	63	1	1.06349	0.952381;
	231	1	9.9	-2	0	0	1	0.989313844	-33.9556702	63	1	1.06349	0.952381;
	232	1	14.6	-5.1	0	0	1	1.05115811	-15.6679478	63	1	1.07937	0.920635;
	233	1	0	0	0	0	1	1.04292375	-17.5082962	225	1	1.08889	0.977778;
	234	1	6	-2.4	0	0	1	1.03842215	-13.069944	90	1	1.06667	0.977778;
	235	1	6.6	1.5	0	0	1	1.02830326	-1.25712095	90	1	1.08889	0.933333;
	236	1	0	0	0	0	1	1.07356824	-2.11678294	20	1	1.15	0.8;
	237	1	21.9	6.1	0	0	1	1.07356824	-2.11678294	90	1	1.08889	0.933333;
	238	1	15	2.4	0	0	1	1.07026222	0.525105058	225	1	1.08889	0.888889;
	239	1	19	-0.8	0	0	1	1.06035733	-2.56991031	90	1	1.07778	0.922222;
	240	1	37.4	1	0	0	1	1.01312417	-14.4645609	63	1	1.06349	0.936508;
	241	1	19	-2	0	0	1	1.02726759	-8.15370795	90	1	1.06667	0.977778;
	242	1	43.3	2.4	0	0	1	0.992955611	-37.5312238	63	1	1.06349	0.952381;
	243	1	32.9	4.7	0	0	1	1.05544643	-21.1303971	63	1	1.07937	0.920635;
	244	1	35.5	0.5	0	0	1	1.03964777	-15.0838869	90	1	1.07778	0.922222;
	245	1	40.1	4.7	0	0	1	1.01324117	-23.6951612	63	1	1.06349	0.968254;
	246	1	21.9	-5.1	0	0	1	1.04120238	-21.2490239	63	1	1.07937	0.920635;
	247	1	43.9	2.5	0	0	1	1.03688648	-17.0749563	90	1	1.07778	0.922222;
	248	1	10.7	0.9	0	0	1	1.02002245	-18.3998388	63	1	1.07937	0.920635;
	249	2	14.2	2.8	0	0	1	0.988090847	-12.9007276	63	1	1.06349	0.936508;
	250	1	0	0	0	0	1	1.02667047	-11.2073088	225	1	1.08889	0.933333;
	251	1	22.6	5.6	0	0	1	1.05054728	-4.94531399	225	1	1.08889	1.00444;
	252	1	19.5	-2.3	0	0	1	1.04782481	-23.0597732	63	1	1.07937	0.920635;
	253	1	20.5	-6.8	0	0	1	1.01204795	-13.1670026	63	1	1.07937	0.952381;
	254	1	5.6	0.3	0	0	1	1.01940059	-12.2924396	90	1	1.06667	0.977778;
	255	1	7.5	-3.1	0	0	1	1.03525129	-5.17271816	90	1	1.06667	0.977778;
	256	1	42.9	4.8	0	0	1	1.03767738	-7.57672714	63	1	1.07937	0.952381;
	257	1	13.6	-0.8	0	0	1	1.03327043	-13.0706199	63	1	1.07937	0.952381;
	258	1	7.5	1.8	0	0	1	1.02407401	-11.5235272	63	1	1.06349	0.936508;
	259	2	1.7	0	0	0	1	1.03747461	-18.7844756	63	1	1.07937	0.920635;
	260	1	0	0	0	0	1	1.07510969	-18.0476997	225	1	1.08889	1;
	261	2	0	0	0	0	1	1.05197847	-14.4190894	90	1	1.07778	0.922222;
	262	1	27.8	0.5	0	0	1	1.0395891	-5.63552202	63	1	1.07937	0.952381;
	263	1	0	0	0	0	1	1.07208771	-3.76089089	225	1	1.08889	0.986667;
	264	2	0	0	0	0	1	1.02257566	-24.5545904	63	1	1.07937	0.920635;
	265	1	0	0	0	80	1	1.07945642	2.50972367	225	1	1.08889	0.888889;
	266	1	0	0	0	0	1	1.06950084	1.67176608	225	1	1.08889	0.888889;
	267	1	0	0	0	0	1	1.07246489	5.17834407	380	1	1.10526	1.01316;
	268	1	0	0	0	0	1	1.01768582	-6.36715509	63	1	1.04762	0.952381;
	269	1	19.1	2	0	-80	1	1.06438803	-4.05247531	225	1	1.08889	1.00444;
	270	1	47.2	1.7	0	0	1	1.0713251	-4.05588362	225	1	1.08889	1.00444;
	271	1	10.7	10.5	0	0	1	1.00711463	-14.9621868	63	1	1.07937	0.920635;
	272	1	18.5	-1.3	0	0	1	1.02601584	-22.928714	63	1	1.07937	0.920635;
	273	1	0	0	0	0	1	1.04655519	-9.50394727	225	1	1.08889	0.977778;
	274	1	0	0	0	0	1	1.04669281	-9.50443095	225	1	1.08889	0.977778;
	275	1	10	6	0	0	1	1.03012893	-13.6498433	63	1	1.06349	0.968254;
	276	1	49.7	0.7	0	0	1	1.04512648	-10.3336084	225	1	1.08444	1.00889;
	277	1	36.5	1.2	0	0	1	1.08803315	-2.13526219	90	1	1.1	0.944444;
	278	1	0	0	0	0	1	1.06765559	-6.51487782	225	1	1.08668	1.00444;
	279	1	0	0	0	0	1	1.07020156	-1.25958066	380	1	1.10263	1.04211;
	280	1	3.9	3.2	0	0	1	1.02613586	-9.20051665	90	1	1.06667	0.977778;
	281	1	0.5	3.1	0	0	1	1.06749604	-6.56732094	225	1	1.08655	1.00444;
	282	1	15.9	-1.2	0	0	1	1.00672118	-25.4896491	63	1	1.06349	0.936508;
	283	1	36.5	4.5	0	0	1	1.03445939	-11.4224007	90	1	1.07778	0.977778;
	284	1	10.8	0	0	0	1	1.00670851	-4.97404032	63	1	1.07937	0.952381;
	285	2	0	0	0	0	1	0.988091333	-12.9007391	63	1	1.06349	0.936508;
	286	1	6.2	-1.4	0	0	1	1.02294465	-14.0134762	90	1	1.06667	0.977778;
	287	1	12.4	2.7	0	0	1	0.999292551	3.38577983	63	1	1.07937	0.952381;
	288	1	0.4	3.8	0	0	1	1.05183203	-4.65013339	225	1	1.08889	1.00444;
	289	1	11.6	2.3	0	0	1	1.05180725	-4.65678166	225	1	1.08889	1.00444;
	290	1	19.9	-7.8	0	0	1	1.05434258	-6.2100163	90	1	1.06667	0.977778;
	291	1	26.8	-4.5	0	0	1	1.03162104	-13.5412305	90	1	1.06667	0.977778;
	292	1	40	5.8	0	0	1	1.05578467	7.23276626	225	1	1.08889	0.888889;
	293	1	6.6	4.2	0	0	1	1.08431639	0.618839395	90	1	1.11111	0.955556;
	294	1	13.1	-5.4	0	0	1	1.03804791	-19.5703685	63	1	1.07937	0.920635;
	295	1	1	0.4	0	0	1	1.01661412	-14.0494698	63	1	1.06349	0.936508;
	296	1	39.1	2.9	0	0	1	1.01666432	-14.0459421	63	1	1.06349	0.936508;
	297	1	0	-0.9	0	0	1	1.0071709	-10.4120428	63	1	1.07937	0.952381;
	298	1	16.8	3.3	0	0	1	1.06880053	1.20772411	225	1	1.08889	0.888889;
	299	1	4.9	-1.7	0	0	1	1.0257637	-10.7414172	63	1	1.07937	0.952381;
	300	1	2	-0.5	0	0	1	1.00393364	-14.7755668	63	1	1.06349	0.936508;
	301	1	14.9	-0	0	0	1	1.00130847	-13.4484996	63	1	1.06349	0.936508;
	302	1	7	3.1	0	0	1	1.0787679	3.55554772	90	1	1.11111	0.955556;
	303	1	54.5	16.2	0	0	1	1.074817	5.79708415	225	1	1.08889	0.888889;
	304	1	3	0.4	0	0	1	1.00809721	-11.1818976	63	1	1.06349	0.968254;
	305	1	9.8	1.6	0	0	1	1.03010646	-8.07364601	63	1	1.06349	0.936508;
	306	1	30.8	3.7	0	0	1	1.03515148	-24.2030601	63	1	1.07937	0.920635;
	307	1	26.6	-5.1	0	0	1	1.02582506	-18.7953461	63	1	1.06349	0.968254;
	308	2	0	0	0	0	1	1.05258666	-13.0621834	63	1	1.06349	0.936508;
	309	1	13.2	-0.6	0	0	1	1.0043039	-5.28481279	63	1	1.07937	0.952381;
	310	1	16.3	-5.4	0	0	1	1.00598564	-19.1625214	90	1	1.06667	0.977778;
	311	1	0.6	0.2	0	0	1	1.03114882	-22.8461096	63	1	1.07937	0.920635;
	312	1	7	2.5	0	0	1	1.03348043	-24.2251804	63	1	1.06349	0.968254;
	313	1	11	3.5	0	0	1	1.03375848	-24.2448963	63	1	1.06349	0.968254;
	314	1	0.5	0.8	0	0	1	1.01784147	-15.8501928	90	1	1.06667	0.977778;
	315	1	13.4	3.1	0	0	1	1.0183893	2.03048065	90	1	1.07778	0.922222;
	316	1	23.7	-0.8	0	0	1	1.04031013	-9.93423477	63	1	1.07937	0.920635;
	317	1	0	0	0	0	1	1.06861087	-7.02602894	225	1	1.08889	1;
	318	1	17.1	-2.3	0	0	1	1.0431884	-3.86943707	90	1	1.07778	0.977778;
	319	1	32.7	2.6	0	0	1	1.03276993	-20.6591376	63	1	1.07937	0.920635;
	320	2	2.8	0	0	0	1	1.05696682	-18.8600136	63	1	1.07937	0.920635;
	321	1	13.4	4	0	0	1	1.00866073	-9.37683466	63	1	1.04762	0.952381;
	322	2	0	0	0	0	1	1.05346541	-21.5098834	63	1	1.07937	0.920635;
	323	1	24.8	-2.3	0	0	1	1.07685057	-0.786154868	90	1	1.1	0.944444;
	324	1	0	0	0	0	1	1.05420208	-19.7414528	63	1	1.07937	0.920635;
	325	1	0	0	0	0	1	1.03830537	-10.9762864	225	1	1.08889	1;
	326	1	0	0	0	0	1	1.07631609	-10.8828847	380	1	1.10526	1.05263;
	327	1	15.5	1.9	0	0	1	1.03240994	-12.8093428	63	1	1.06349	0.936508;
	328	2	18.4	8.3	0	0	1	1.03256173	-10.3618601	63	1	1.06349	0.936508;
	329	1	3.4	18	0	0	1	1.04593363	-15.813644	63	1	1.07937	0.920635;
	330	1	0	0	0	0	1	1.0597199	-13.4604902	225	1	1.08889	1;
	331	1	29.7	2.2	0	0	1	1.02760322	-17.9606876	63	1	1.07937	0.920635;
	332	1	48	-4.3	0	0	1	1.0835414	-1.70897419	90	1	1.1	0.944444;
	333	1	59.5	-8.6	0	0	1	1.05512475	-16.9965902	63	1	1.07937	0.920635;
	334	1	0	0	0	0	1	1.07646187	-14.2047711	225	1	1.08889	1;
	335	2	8.7	-0.5	0	0	1	1.0186264	-25.964465	63	1	1.06349	0.968254;
	336	2	0	0	0	0	1	1.03598128	-22.7633103	150	1	1.08	0.966667;
	337	1	7.7	-2.1	0	0	1	1.01464795	-31.621339	63	1	1.06349	0.952381;
	338	1	3	-2	0	0	1	1.0402599	-9.06939681	63	1	1.06349	0.936508;
	339	2	0.7	0	0	0	1	1.01326801	-21.2850518	63	1	1.07937	0.920635;
	340	1	9.1	-1.9	0	0	1	1.06637298	-22.8690578	63	1	1.07937	0.920635;
	341	2	0	0	0	0	1	1.07237787	-20.0789075	63	1	1.07937	0.920635;
	342	1	14.3	5.7	0	0	1	1.03268865	-20.4541627	63	1	1.07937	0.920635;
	343	1	20.6	0.4	0	0	1	1.03519891	-13.1121423	90	1	1.06667	0.977778;
	344	1	6.8	-10.4	0	0	1	1.0638969	-18.8913626	63	1	1.07937	0.920635;
	345	1	10.5	3.8	0	0	1	1.00570663	-2.57615354	63	1	1.07937	0.952381;
	346	1	0	0	0	0	1	1.03151969	-0.776915249	225	1	1.08889	0.986667;
	347	1	20	-0.6	0	0	1	0.977704944	-24.837714	63	1	1.06349	0.968254;
	348	1	18.1	-8.6	0	0	1	1.05400467	-2.88364498	90	1	1.07778	0.977778;
	349	1	12.1	-2.5	0	0	1	1.05611303	-6.57344059	225	1	1.08444	1.00889;
	350	1	-0.8	0.5	0	0	1	1.02708278	-24.5952355	63	1	1.06349	0.968254;
	351	1	39.1	5.2	0	0	1	1.07798341	-3.44266359	90	1	1.1	0.944444;
	352	1	0	0	0	0	1	1.0739074	8.21418855	380	1	1.10526	1.04211;
	353	1	0	0	0	0	1	1.07350566	8.1969729	380	1	1.10526	1.04211;
	354	1	12.7	2.1	0	0	1	1.07408154	-6.50702778	225	1	1.08889	1;
	355	1	4.1	3.8	0	0	1	1.06531026	-4.57731273	225	1	1.08889	1.00444;
	356	1	22.8	-8	0	0	1	1.02843109	-7.31435276	63	1	1.04762	0.952381;
	357	1	2.9	0.8	0	0	1	1.03829653	-16.0877078	63	1	1.07937	0.920635;
	358	1	9	3	0	0	1	1.03660952	-0.82024702	63	1	1.07937	0.920635;
	359	2	7	3	0	0	1	1.02633874	-10.0325259	63	1	1.07937	0.920635;
	360	1	11.6	4.1	0	0	1	0.986264217	-6.2308654	63	1	1.07937	0.952381;
	361	1	16.7	6.3	0	0	1	1.02690789	-10.0007378	63	1	1.07937	0.920635;
	362	1	21.5	1.4	0	0	1	1.02556674	-22.3638202	63	1	1.06349	0.968254;
	363	1	35	-4.2	0	0	1	1.05938321	-20.5517753	63	1	1.07937	0.920635;
	364	1	0	0	0	0	1	1.09843705	-18.7775679	150	1	1.1	0.9;
	365	1	0	0	0	0	1	1.07012658	-15.6824357	225	1	1.08889	1;
	366	1	8.1	2.4	0	0	1	1.08802247	0.0223499837	90	1	1.08939	0.933333;
	367	2	-0.5	0	0	0	1	1.072	-3.89603941	225	1	1.08889	1.00444;
	368	1	-0.1	-0.2	0	0	1	1.02433833	-14.9077732	63	1	1.06349	0.936508;
	369	1	0	0	0	0	1	1.03272851	-11.4106128	225	1	1.08889	0.933333;
	370	1	0	0	0	0	1	1.0588851	-6.41311835	380	1	1.10526	1.03947;
	371	1	0	0	0	0	1	1.05421158	-7.70902933	380	1	1.10526	1.03947;
	372	1	0	0	0	0	1	1.06937634	-5.97280867	225	1	1.08889	1.00444;
	373	1	38.3	5	0	0	1	1.06160334	-5.0001712	225	1	1.08889	1.00444;
	374	1	8.7	-0.4	0	0	1	0.993755174	4.43109505	63	1	1.07937	0.952381;
	375	1	0	0	0	0	1	1.00924176	1.47792846	225	1	1.08889	0.986667;
	376	1	17.1	5.4	0	0	1	1.06920761	-5.98384957	225	1	1.08889	1.00444;
	377	1	20.6	-1.2	0	0	1	0.968496802	-34.3496848	63	1	1.06349	0.952381;
	378	1	8.1	-1	0	0	1	1.01491224	-14.6046336	90	1	1.06667	0.977778;
	379	1	38.5	-5.3	0	0	1	1.01935836	-22.7707642	63	1	1.06349	0.952381;
	380	1	4.4	-1.9	0	0	1	1.00668046	-2.45764503	63	1	1.07937	0.952381;
	381	1	31.8	-1	0	0	1	1.04611749	-8.8728174	63	1	1.06349	0.936508;
	382	1	0	0	0	0	1	1.06101829	-4.89921266	225	1	1.08889	0.933333;
	383	1	0	0	0	0	1	1.07453672	-0.456478691	380	1	1.10526	1.03947;
	384	1	39.5	6.8	0	0	1	1.03074935	-8.89772306	90	1	1.07778	0.977778;
	385	1	12.2	-0.4	0	0	1	1.00323471	-1.49511852	63	1	1.07937	0.952381;
	386	1	45.8	18.3	0	0	1	1.03870963	-3.06963387	63	1	1.07937	0.920635;
	387	1	14.6	-0.3	0	0	1	1.0268707	-15.5268441	63	1	1.07937	0.920635;
	388	1	17.8	7.8	0	0	1	1.01029943	2.89845266	63	1	1.07937	0.920635;
	389	1	43	8.3	0	0	1	1.06971748	-5.53083371	225	1	1.08889	1;
	390	1	7.2	-2.8	0	0	1	1.05104299	-15.0039594	90	1	1.07778	0.922222;
	391	1	37.5	-0.5	0	0	1	1.07508706	-2.7183246	90	1	1.1	0.944444;
	392	1	20.4	1	0	0	1	1.0334262	-11.8327445	63	1	1.06349	0.936508;
	393	1	1.2	0.3	0	0	1	1.03435163	-13.8355312	63	1	1.06349	0.968254;
	394	1	20.9	-3.7	0	0	1	1.02539217	-19.4534988	63	1	1.07937	0.920635;
	395	1	20.3	-2.3	0	0	1	1.02084324	-24.308857	63	1	1.06349	0.968254;
	396	1	8	1	0	0	1	1.02765915	-3.18187219	63	1	1.07937	0.952381;
	397	1	6	2	0	0	1	1.04560745	-9.52155488	63	1	1.07937	0.920635;
	398	1	23	-1.7	0	0	1	1.04570868	-9.51548051	63	1	1.07937	0.920635;
	399	1	0	0	0	0	1	1.00564219	-1.02097091	63	1	1.07937	0.952381;
	400	1	12	-2.8	0	0	1	1.04340354	-21.2885298	63	1	1.07937	0.920635;
	401	1	4.7	0.5	0	0	1	1.02310897	-13.9947162	90	1	1.06667	0.977778;
	402	1	3.4	1.4	0	0	1	1.07088659	-14.1932436	63	1	1.07937	0.920635;
	403	1	16	1.3	0	0	1	1.04314357	-11.4377437	63	1	1.07937	0.920635;
	404	1	4	-0.4	0	0	1	1.04437224	-9.28572936	63	1	1.06349	0.936508;
	405	1	17.9	-1	0	0	1	1.03886193	-15.4487108	90	1	1.07778	0.922222;
	406	1	20.7	4.7	0	0	1	1.02820918	-12.9740696	63	1	1.06349	0.936508;
	407	1	29.3	7.6	0	0	1	0.998844131	-14.8824355	63	1	1.06349	0.936508;
	408	1	8.3	3.9	0	0	1	1.02914352	-11.9289848	63	1	1.06349	0.936508;
	409	1	41.7	-3.6	0	0	1	1.0404301	-6.8841178	90	1	1.06667	0.977778;
	410	1	0.5	0.3	0	0	1	1.03994696	-10.2874774	90	1	1.06667	0.977778;
	411	1	9.9	-4.9	0	0	1	1.0674492	-17.7241768	63	1	1.07937	0.920635;
	412	1	15.6	1.7	0	0	1	1.01725003	-18.1774666	90	1	1.06667	0.977778;
	413	1	12.1	-2.7	0	0	1	1.02698127	-13.2375182	90	1	1.06667	0.977778;
	414	1	23.1	-5.6	0	0	1	0.989849939	-3.24884365	63	1	1.07937	0.952381;
	415	1	21.8	-2.2	0	0	1	1.01072875	-31.6719406	63	1	1.06349	0.952381;
	416	1	-0.3	0.4	0	0	1	0.991851653	-16.6471778	63	1	1.06349	0.936508;
	417	1	5.6	-2.5	0	0	1	1.02744096	-14.1421141	63	1	1.07937	0.952381;
	418	1	4.7	-43.2	0	0	1	1.07635054	-5.96517718	225	1	1.08889	1.00444;
	419	1	14.1	-0.6	0	0	1	1.05421808	-23.0665887	63	1	1.07937	0.920635;
	420	1	7	2.4	0	0	1	1.02380593	-6.5607896	63	1	1.04762	0.952381;
	421	1	20.5	2.7	0	0	1	1.05603555	-16.1948221	63	1	1.07937	0.920635;
	422	1	-4.7	0.6	0	0	1	1.05832516	-15.9153575	63	1	1.07937	0.920635;
	423	1	0	0	0	0	1	1.02992069	-27.6401769	63	1	1.06349	0.968254;
	424	1	0	0	0	0	1	1.05124469	-15.3089093	63	1	1.07937	0.920635;
	425	1	0	0	0	0	1	1.08823934	-12.5966974	225	1	1.09455	1;
	426	1	0	0	0	0	1	1.00788096	1.22268365	63	1	1.07937	0.952381;
	427	1	0	0	0	0	1	1.03435087	4.20067223	225	1	1.08889	0.986667;
	428	1	0	0	0	0	1	1.03396352	-7.21864177	63	1	1.04762	0.952381;
	429	1	0	-0.2	0	0	1	1.0062788	-16.3736813	63	1	1.06349	0.936508;
	430	1	0	-1	0	0	1	1.0172203	-22.183328	63	1	1.06349	0.952381;
	431	1	45.1	3.9	0	0	1	1.03686458	-19.027076	63	1	1.06349	0.968254;
	432	1	77	17.9	0	0	1	1.08068407	-5.40918303	225	1	1.09192	1.00444;
	433	1	9	-0.8	0	0	1	1.05524788	-19.0564194	63	1	1.07937	0.920635;
	434	1	20.3	-5.4	0	0	1	1.04997411	-21.7619832	63	1	1.07937	0.920635;
	435	1	0.2	1	0	0	1	1.01798526	-5.81021788	63	1	1.04762	0.952381;