function mpc = case2736sp
%CASE2736SP  Power flow data for Polish system - summer 2004 peak.
%   Please see CASEFORMAT for details on the case file format.
%
%   This case represents the Polish 400, 220 and 110 kV networks during
%   summer 2004 peak conditions. Multiple centrally dispatchable
%   generators at a bus have not been aggregated. Generators that are
%   not centrally dispatchable in the Polish energy market are given a
%   cost of zero.
%
%   This data was graciously provided by, and is distributed with the
%   permission of, Roman Korab <roman.korab@polsl.pl>.

%   MATPOWER

%% MATPOWER Case Format : Version 2
mpc.version = '2';

%%-----  Power Flow Data  -----%%
%% system MVA base
mpc.baseMVA = 100;

%% bus data
%	bus_i	type	Pd	Qd	Gs	Bs	area	Vm	Va	baseKV	zone	Vmax	Vmin	lam_P	lam_Q	mu_Vmax	mu_Vmin
mpc.bus = [
	1	1	0	0	0	0	1	1.1010186	36.775787	220	1	1.11	0.95	97.9642	0.1737	0.0000	0.0000;
	2	1	0	0	0	0	1	1.1060162	38.502827	220	1	1.11	0.95	97.5886	0.0592	0.0000	0.0000;
	3	1	0	0	0	0	1	1.0848541	13.549052	220	1	1.11	0.95	110.9086	0.1409	0.0000	0.0000;
	4	1	0	0	0	0	1	1.092332	32.518852	220	1	1.11	0.95	100.0063	0.4639	0.0000	0.0000;
	5	1	0	0	0	0	1	1.092363	32.517423	220	1	1.11	0.95	100.0073	0.4634	0.0000	0.0000;
	6	1	0	0	0	0	1	1.0653306	22.234545	220	1	1.11	0.95	104.7833	0.8183	0.0000	0.0000;
	7	1	0	0	0	0	1	1.0654455	22.247039	220	1	1.11	0.95	104.7745	0.8156	0.0000	0.0000;
	8	1	0	0	0	0	1	1.0256415	25.401189	400	1	1.05	0.95	103.5752	0.3513	0.0000	0.0000;
	9	1	0	0	0	0	1	1.0256531	25.407157	400	1	1.05	0.95	103.5718	0.3500	0.0000	0.0000;
	10	1	0	0	0	0	1	1.0586771	21.759947	220	1	1.11	0.95	105.6057	1.0277	0.0000	0.0000;
	11	1	0	0	0	0	1	1.058595	21.754988	220	1	1.11	0.95	105.6080	1.0297	0.0000	0.0000;
	12	1	0	0	0	0	1	1.0585464	21.761505	220	1	1.11	0.95	105.6066	1.0315	0.0000	0.0000;
	13	1	0	0	0	0	1	1.0585095	21.754125	220	1	1.11	0.95	105.6077	1.0320	0.0000	0.0000;
	14	1	0	0	0	0	1	1.0183879	26.785477	400	1	1.05	0.95	102.9672	0.6071	0.0000	0.0000;
	15	1	0	0	0	0	1	1.0315259	22.695731	400	1	1.05	0.95	104.4832	0.0632	0.0000	0.0000;
	16	1	0	0	0	0	1	1.0315259	22.695731	400	1	1.05	0.95	104.4832	0.0632	0.0000	0.0000;
	17	2	0	0	0	0	1	1.0932112	16.45159	220	1	1.11	0.95	108.4499	0.1084	0.0000	0.0000;
	18	1	0	0	0	0	1	1.0932634	16.451047	220	1	1.11	0.95	108.4483	0.1077	0.0000	0.0000;
	19	1	0	0	0	0	1	1.096849	33.519934	220	1	1.11	0.95	99.4431	0.3577	0.0000	0.0000;
	20	1	0	0	0	0	1	1.0968889	33.522277	220	1	1.11	0.95	99.4429	0.3572	0.0000	0.0000;
	21	1	0	0	0	0	1	1.0778181	20.631124	220	1	1.11	0.95	105.9001	0.5847	0.0000	0.0000;
	22	1	0	0	0	0	1	1.0778181	20.631124	220	1	1.11	0.95	105.9001	0.5847	0.0000	0.0000;
	23	1	0	0	0	0	1	1.0563162	21.749861	220	1	1.11	0.95	105.5971	1.0403	0.0000	0.0000;
	24	1	0	0	0	0	1	1.0981385	35.282073	220	1	1.11	0.95	98.8433	0.2741	0.0000	0.0000;
	25	1	0	0	0	0	1	1.0325941	25.080263	400	1	1.05	0.95	103.8800	0.3703	0.0000	0.0000;
	26	2	61.358	72.054	0	0	1	1.11	37.105871	220	1	1.11	0.95	97.7882	0.0000	1044.8801	0.0000;
	27	2	84.861	122.06	0	0	1	1.11	38.794264	220	1	1.11	0.95	97.4519	0.0000	1601.4174	0.0000;
	28	3	49	74	0	0	1	1.0461868	36.029099	400	1	1.05	0.95	98.6073	-0.0008	0.0000	0.0000;
	29	2	49	74	0	0	1	1.0461977	36.03466	400	1	1.05	0.95	98.6040	-0.0000	0.0000	0.0000;
	30	1	0	0	0	0	1	1.0661645	21.34895	220	1	1.11	0.95	105.6749	0.8355	0.0000	0.0000;
	31	1	0	0	0	0	1	1.0438875	34.595074	400	1	1.05	0.95	98.8892	-0.0693	0.0000	0.0000;
	32	1	0	0	0	0	1	1.0557975	21.446015	220	1	1.11	0.95	105.8196	1.0971	0.0000	0.0000;
	33	1	0	0	0	0	1	1.0992548	30.103534	220	1	1.11	0.95	100.8633	0.2948	0.0000	0.0000;
	34	1	0	0	0	0	1	1.0766806	27.272544	220	2	1.11	0.95	101.9122	-0.3204	0.0000	0.0000;
	35	1	0	0	0	0	1	1.0798203	27.673736	220	2	1.11	0.95	102.0744	-0.6743	0.0000	0.0000;
	36	1	0	0	0	0	1	1.0876123	28.64882	220	2	1.11	0.95	101.3876	-0.8651	0.0000	0.0000;
	37	1	0	0	0	0	1	1.0876009	28.646874	220	2	1.11	0.95	101.3886	-0.8649	0.0000	0.0000;
	38	1	0	0	0	0	1	1.0668339	26.033164	220	2	1.11	0.95	102.7618	-0.4427	0.0000	0.0000;
	39	1	0	0	0	0	1	1.11	28.98362	220	2	1.11	0.95	101.1082	-3.0865	18045.9803	0.0000;
	40	1	0	0	0	0	1	1.109887	28.984018	220	2	1.11	0.95	101.1098	-3.0744	0.0000	0.0000;
	41	1	0	0	0	0	1	1.0237808	29.189245	400	2	1.05	0.95	101.1345	-2.0956	0.0000	0.0000;
	42	2	25	0	0	0	1	1.0911339	27.827571	220	2	1.11	0.95	101.8427	-0.1316	0.0000	0.0000;
	43	2	26	0	0	0	1	1.0910418	27.846018	220	2	1.11	0.95	101.8368	-0.1325	0.0000	0.0000;
	44	2	25	0	0	0	1	1.0274551	28.252061	400	2	1.05	0.95	102.0500	-0.0378	0.0000	0.0000;
	45	1	0	0	0	0	1	1.0274089	28.249417	400	2	1.05	0.95	102.0499	-0.0374	0.0000	0.0000;
	46	1	0	0	0	0	1	1.1065267	28.489454	220	2	1.11	0.95	101.4510	-2.8780	0.0000	0.0000;
	47	1	0	0	0	0	1	1.0378593	25.850056	400	2	1.05	0.95	102.2308	-0.8351	0.0000	0.0000;
	48	1	0	0	0	0	1	1.037829	25.84432	400	2	1.05	0.95	102.2336	-0.8342	0.0000	0.0000;
	49	1	0	0	0	0	1	1.0341541	27.739862	400	2	1.05	0.95	102.0681	-0.1569	0.0000	0.0000;
	50	1	0	0	0	0	1	1.0744468	27.089094	220	2	1.11	0.95	102.0731	-0.4925	0.0000	0.0000;
	51	1	0	0	0	0	1	1.0744293	27.091895	220	2	1.11	0.95	102.0731	-0.4924	0.0000	0.0000;
	52	1	0	0	0	0	1	1.0381233	28.457244	400	2	1.05	0.95	101.6773	-0.7629	0.0000	0.0000;
	53	1	0	0	0	0	1	1.0381438	28.459291	400	2	1.05	0.95	101.6757	-0.7648	0.0000	0.0000;
	54	2	13	0	0	0	1	1.092432	29.660532	220	2	1.11	0.95	100.9266	-1.0086	0.0000	0.0000;
	55	2	13	0	0	0	1	1.0923941	29.657448	220	2	1.11	0.95	100.9250	-1.0101	0.0000	0.0000;
	56	2	13	0	0	0	1	1.0448325	29.371186	400	2	1.05	0.95	101.1741	-1.1458	0.0000	0.0000;
	57	2	26	0	0	0	1	1.0448051	29.367657	400	2	1.05	0.95	101.1759	-1.1461	0.0000	0.0000;
	58	2	89.067	40	0	0	1	1.0849742	27.40234	220	2	1.11	0.95	102.0281	-0.2262	0.0000	0.0000;
	59	1	0	0	0	0	1	1.0849851	27.403911	220	2	1.11	0.95	102.0268	-0.2267	0.0000	0.0000;
	60	1	0	0	0	0	1	1.10181	28.422003	220	2	1.11	0.95	101.4486	-2.4534	0.0000	0.0000;
	61	1	0	0	0	0	1	1.0925329	27.376057	220	2	1.11	0.95	102.1670	-0.6982	0.0000	0.0000;
	62	1	0	0	0	0	1	1.0924964	27.373267	220	2	1.11	0.95	102.1674	-0.6941	0.0000	0.0000;
	63	1	0	0	0	0	1	1.0484928	28.281312	400	2	1.05	0.95	101.4167	-1.0744	0.0000	0.0000;
	64	1	0	0	0	0	1	1.048443	28.269845	400	2	1.05	0.95	101.4211	-1.0730	0.0000	0.0000;
	65	1	0	0	0	0	1	1.08105	27.580632	220	2	1.11	0.95	101.8675	-0.6568	0.0000	0.0000;
	66	1	0	0	0	0	1	1.0825042	27.745917	220	2	1.11	0.95	101.7568	-0.6842	0.0000	0.0000;
	67	1	0	0	0	0	1	1.0750296	27.807377	220	2	1.11	0.95	101.7225	-0.4651	0.0000	0.0000;
	68	1	0	0	0	0	1	1.1010761	32.590465	220	3	1.11	0.95	99.8077	-0.3688	0.0000	0.0000;
	69	1	10.327	0	0	0	1	1.0960299	29.336414	220	3	1.11	0.95	101.2532	-0.5368	0.0000	0.0000;
	70	1	8.032	3.714	0	0	1	1.0958743	29.343331	220	3	1.11	0.95	101.2506	-0.5330	0.0000	0.0000;
	71	1	0	0	0	0	1	1.0988119	32.340582	220	3	1.11	0.95	99.5961	0.0929	0.0000	0.0000;
	72	1	0	0	0	0	1	1.0988429	32.352565	220	3	1.11	0.95	99.5928	0.0917	0.0000	0.0000;
	73	1	0	0	0	0	1	1.0958718	32.07566	220	3	1.11	0.95	99.7104	0.0192	0.0000	0.0000;
	74	1	0	0	0	0	1	1.0958515	32.070879	220	3	1.11	0.95	99.7113	0.0193	0.0000	0.0000;
	75	1	0	0	0	0	1	1.0981431	30.779823	220	3	1.11	0.95	100.6839	0.1752	0.0000	0.0000;
	76	1	0	0	0	0	1	1.0980313	30.772798	220	3	1.11	0.95	100.6881	0.1774	0.0000	0.0000;
	77	2	27	70	0	0	1	1.1017006	33.163979	220	3	1.11	0.95	99.2188	0.0000	0.0000	0.0000;
	78	2	18.7	42	0	0	1	1.1001979	33.206703	220	3	1.11	0.95	99.2865	0.0000	0.0000	0.0000;
	79	1	4.934	0.817	0	0	1	1.0917918	31.874096	220	3	1.11	0.95	100.0821	0.2170	0.0000	0.0000;
	80	1	0	0	0	0	1	1.0918096	31.875195	220	3	1.11	0.95	100.0813	0.2168	0.0000	0.0000;
	81	2	18	57	0	0	1	1.0324377	32.199744	400	3	1.05	0.95	99.4311	-0.0467	0.0000	0.0000;
	82	1	0	0	0	0	1	1.088144	31.187203	220	3	1.11	0.95	99.9377	-0.6237	0.0000	0.0000;
	83	1	0	0	0	0	1	1.0979531	31.585593	220	3	1.11	0.95	100.0804	0.0223	0.0000	0.0000;
	84	1	0	0	0	0	1	1.0979533	31.590664	220	3	1.11	0.95	100.0786	0.0222	0.0000	0.0000;
	85	1	44.864	-6.4	0	0	1	1.101997	32.578494	220	3	1.11	0.95	99.7311	-0.3991	0.0000	0.0000;
	86	1	0	0	0	0	1	1.1019728	32.573278	220	3	1.11	0.95	99.7331	-0.3985	0.0000	0.0000;
	87	1	0	0	0	0	1	1.0921611	31.890439	220	3	1.11	0.95	99.8837	0.1014	0.0000	0.0000;
	88	1	0	0	0	0	1	1.0921486	31.896061	220	3	1.11	0.95	99.8819	0.1022	0.0000	0.0000;
	89	1	0	0	0	0	1	1.1032657	33.033004	220	3	1.11	0.95	99.5000	-0.4139	0.0000	0.0000;
	90	1	0	0	0	0	1	1.103263	33.028595	220	3	1.11	0.95	99.5022	-0.4161	0.0000	0.0000;
	91	1	0	0	0	0	1	1.0475653	34.208064	400	3	1.05	0.95	99.2147	-0.2518	0.0000	0.0000;
	92	1	0	0	0	0	1	1.0475601	34.20635	400	3	1.05	0.95	99.2150	-0.2518	0.0000	0.0000;
	93	1	0	0	0	0	1	1.0935069	31.482247	220	3	1.11	0.95	100.0665	0.0637	0.0000	0.0000;
	94	1	0	0	0	0	1	1.0935303	31.477652	220	3	1.11	0.95	100.0682	0.0640	0.0000	0.0000;
	95	1	0	0	0	0	1	1.0927523	31.68528	220	3	1.11	0.95	100.0032	-0.1863	0.0000	0.0000;
	96	1	0	0	0	0	1	1.0927385	31.682752	220	3	1.11	0.95	100.0027	-0.1888	0.0000	0.0000;
	97	2	12.49	3.696	0	0	1	1.0988887	32.455083	220	3	1.11	0.95	99.6560	-0.2413	0.0000	0.0000;
	98	1	17.327	6.126	0	0	1	1.0988852	32.448472	220	3	1.11	0.95	99.6584	-0.2434	0.0000	0.0000;
	99	1	0	0	0	0	1	1.0960777	29.360785	220	3	1.11	0.95	101.2403	-0.5372	0.0000	0.0000;
	100	1	0	0	0	0	1	1.0960847	29.360593	220	3	1.11	0.95	101.2400	-0.5362	0.0000	0.0000;
	101	1	0	0	0	0	1	1.091473	30.406145	220	3	1.11	0.95	100.9840	0.3400	0.0000	0.0000;
	102	1	0	0	0	0	1	1.0914416	30.406439	220	3	1.11	0.95	100.9833	0.3405	0.0000	0.0000;
	103	2	14	40	0	0	1	1.0995351	31.562811	220	3	1.11	0.95	100.1083	0.0000	0.0000	0.0000;
	104	2	0	0	0	0	1	1.0994826	31.535777	220	3	1.11	0.95	100.1174	0.0013	0.0000	0.0000;
	105	2	7	18	0	0	1	1.0951885	31.964706	220	3	1.11	0.95	99.8094	0.0000	0.0000	0.0000;
	106	2	0	0	0	0	1	1.095137	31.962104	220	3	1.11	0.95	99.8116	0.0000	0.0000	0.0000;
	107	1	0	13.892	0	0	1	1.0993639	31.893822	220	3	1.11	0.95	99.9190	-0.5043	0.0000	0.0000;
	108	1	73.779	8.097	0	0	1	1.0993779	31.884324	220	3	1.11	0.95	99.9214	-0.5078	0.0000	0.0000;
	109	1	0	0	0	0	1	1.0935543	31.15097	220	3	1.11	0.95	100.6245	0.0315	0.0000	0.0000;
	110	1	0	0	0	0	1	1.0870297	31.776981	220	3	1.11	0.95	100.2389	0.3415	0.0000	0.0000;
	111	1	0	0	0	0	1	1.0870594	31.777527	220	3	1.11	0.95	100.2383	0.3411	0.0000	0.0000;
	112	1	0	0	0	0	1	1.09294	31.951505	220	3	1.11	0.95	100.0151	0.1993	0.0000	0.0000;
	113	1	0	0	0	0	1	1.0929963	31.960626	220	3	1.11	0.95	100.0113	0.1982	0.0000	0.0000;
	114	1	0	0	0	0	1	1.0414756	31.315391	400	3	1.05	0.95	100.0335	-0.6552	0.0000	0.0000;
	115	2	0	0	0	0	1	1.0996551	32.842783	220	3	1.11	0.95	99.3961	-0.0492	0.0000	0.0000;
	116	2	8	15	0	0	1	1.0996683	32.845139	220	3	1.11	0.95	99.3969	-0.0498	0.0000	0.0000;
	117	2	5.5	10	0	0	1	1.0980564	31.963394	220	3	1.11	0.95	100.0549	-0.0505	0.0000	0.0000;
	118	1	0	0	0	0	1	1.0980782	31.954501	220	3	1.11	0.95	100.0569	-0.0515	0.0000	0.0000;
	119	1	0	0	0	0	1	1.0496156	29.100897	400	3	1.05	0.95	101.1591	-1.1087	0.0000	0.0000;
	120	1	0	0	0	0	1	1.0496497	29.105654	400	3	1.05	0.95	101.1569	-1.1097	0.0000	0.0000;
	121	1	0	0	0	0	1	1.0499794	31.482429	400	3	1.05	0.95	99.9752	-1.1326	0.0000	0.0000;
	122	1	0	0	0	0	1	1.05	31.48757	400	3	1.05	0.95	99.9734	-1.1353	8588.8847	0.0000;
	123	1	0	0	0	0	1	1.0928602	31.085037	220	3	1.11	0.95	100.7429	0.0437	0.0000	0.0000;
	124	2	11	17.5	0	0	1	1.0993585	33.009613	220	3	1.11	0.95	99.3793	-0.0039	0.0000	0.0000;
	125	2	41.353	61.2	0	0	1	1.0992582	33.027058	220	3	1.11	0.95	99.3738	0.0000	0.0000	0.0000;
	126	2	14	33	0	0	1	1.0363847	31.71386	400	3	1.05	0.95	99.7881	-0.2925	0.0000	0.0000;
	127	1	0	0	0	0	1	1.0363725	31.714405	400	3	1.05	0.95	99.7881	-0.2933	0.0000	0.0000;
	128	1	0	0	0	0	1	1.1013954	32.470129	220	3	1.11	0.95	99.7900	-0.3859	0.0000	0.0000;
	129	1	0	0	0	0	1	1.1013663	32.472326	220	3	1.11	0.95	99.7883	-0.3854	0.0000	0.0000;
	130	1	0	0	0	0	1	1.1018746	32.696256	220	3	1.11	0.95	99.6716	-0.3775	0.0000	0.0000;
	131	2	1.5	9	0	0	1	1.1008625	31.132371	220	3	1.11	0.95	100.5080	0.1314	0.0000	0.0000;
	132	2	0	0	0	0	1	1.0980639	30.772568	220	3	1.11	0.95	100.6881	0.1766	0.0000	0.0000;
	133	2	11.215	8.3	0	0	1	1.11	28.903756	220	4	1.11	0.95	101.2167	0.0000	1024.1353	0.0000;
	134	2	10.333	7.7	0	0	1	1.1099315	28.901135	220	4	1.11	0.95	101.2175	0.0022	0.0000	0.0000;
	135	1	0	0	0	0	1	1.0810731	25.003209	220	4	1.11	0.95	100.9562	-2.0325	0.0000	0.0000;
	136	1	0	0	0	0	1	1.0828301	25.845304	220	4	1.11	0.95	100.8377	-1.3233	0.0000	0.0000;
	137	1	0	0	0	0	1	1.0065862	25.629604	400	4	1.05	0.95	101.9525	0.0152	0.0000	0.0000;
	138	1	0	0	0	0	1	1.0066041	25.629594	400	4	1.05	0.95	101.9534	0.0152	0.0000	0.0000;
	139	1	0	0	0	0	1	1.0954147	18.201899	220	4	1.11	0.95	108.0210	0.2680	0.0000	0.0000;
	140	1	0	0	0	0	1	1.1000855	14.087622	220	4	1.11	0.95	110.4893	0.1754	0.0000	0.0000;
	141	1	0	0	0	0	1	1.1000855	14.087622	220	4	1.11	0.95	110.4893	0.1754	0.0000	0.0000;
	142	1	0	0	0	0	1	1.0997348	16.013776	220	4	1.11	0.95	108.7946	0.2311	0.0000	0.0000;
	143	1	0	0	0	0	1	1.0776819	23.706483	220	4	1.11	0.95	101.6440	-1.1967	0.0000	0.0000;
	144	1	0	0	0	0	1	1.0776819	23.706483	220	4	1.11	0.95	101.6440	-1.1967	0.0000	0.0000;
	145	2	0	0	0	0	1	1.1088684	25.389294	220	4	1.11	0.95	103.0118	0.0224	0.0000	0.0000;
	146	2	0	0	0	0	1	1.1088509	25.388257	220	4	1.11	0.95	103.0087	0.0234	0.0000	0.0000;
	147	2	25.553	12.9	0	0	1	1.11	16.402836	220	4	1.11	0.95	108.8237	0.0000	137.4001	0.0000;
	148	1	0	0	0	0	1	1.1099376	16.407478	220	4	1.11	0.95	108.8222	0.0012	0.0000	0.0000;
	149	2	11	12	0	0	1	1.0401684	17.664753	400	4	1.05	0.95	108.5541	-0.1626	0.0000	0.0000;
	150	2	11.922	13.7	0	0	1	1.0401565	17.665765	400	4	1.05	0.95	108.5538	-0.1620	0.0000	0.0000;
	151	1	0	0	0	0	1	1.069707	17.919442	220	4	1.11	0.95	108.6543	0.9181	0.0000	0.0000;
	152	1	0	0	0	0	1	1.0969163	20.247111	220	4	1.11	0.95	105.8110	0.2418	0.0000	0.0000;
	153	1	0	0	0	0	1	1.096869	20.242733	220	4	1.11	0.95	105.8119	0.2429	0.0000	0.0000;
	154	2	19.475	64.3	0	0	1	1.0864589	28.005014	220	4	1.11	0.95	100.2380	-0.0784	0.0000	0.0000;
	155	2	16	33	0	0	1	1.0864932	27.996658	220	4	1.11	0.95	100.2439	-0.0748	0.0000	0.0000;
	156	1	0	0	0	0	1	1.0043516	27.561652	400	4	1.05	0.95	100.5569	-0.0001	0.0000	0.0000;
	157	2	10	25	0	0	1	1.0043458	27.567359	400	4	1.05	0.95	100.5542	0.0000	0.0000	0.0000;
	158	1	0	0	0	0	1	1.0991142	14.121984	220	4	1.11	0.95	110.3861	0.1678	0.0000	0.0000;
	159	1	0	0	0	0	1	1.0991142	14.121984	220	4	1.11	0.95	110.3861	0.1678	0.0000	0.0000;
	160	1	0	0	0	0	1	1.01267	25.596022	400	4	1.05	0.95	101.9142	0.0037	0.0000	0.0000;
	161	1	0	0	0	0	1	1.0153659	26.740571	400	4	1.05	0.95	101.4418	-0.0330	0.0000	0.0000;
	162	1	0	0	0	0	1	1.015348	26.736535	400	4	1.05	0.95	101.4436	-0.0331	0.0000	0.0000;
	163	2	5.54	2.93	0	0	1	1.11	25.217368	220	4	1.11	0.95	103.0649	0.0000	332.7039	0.0000;
	164	2	18.255	11.5	0	0	1	1.11	25.208728	220	4	1.11	0.95	103.0713	0.0000	1279.9799	0.0000;
	165	1	0	0	0	0	1	1.11	25.208728	220	4	1.11	0.95	103.0713	0.0000	0.0000	0.0000;
	166	1	0	0	0	0	1	1.0904059	14.08851	220	4	1.11	0.95	110.8567	0.0398	0.0000	0.0000;
	167	1	0	0	0	0	1	1.0992392	13.957564	220	4	1.11	0.95	110.5522	0.1850	0.0000	0.0000;
	168	1	0	0	0	0	1	1.0934021	17.056139	220	4	1.11	0.95	108.8217	0.1748	0.0000	0.0000;
	169	1	0	0	0	0	1	1.0933821	17.048382	220	4	1.11	0.95	108.8244	0.1745	0.0000	0.0000;
	170	1	0	0	0	0	1	1.0280759	16.561836	400	4	1.05	0.95	108.9582	0.2096	0.0000	0.0000;
	171	1	0	0	0	0	1	1.0280759	16.561836	400	4	1.05	0.95	108.9582	0.2096	0.0000	0.0000;
	172	1	0	0	0	0	1	1.0678718	20.601469	220	4	1.11	0.95	106.2796	0.8193	0.0000	0.0000;
	173	1	0	0	0	0	1	1.0678575	20.607682	220	4	1.11	0.95	106.2773	0.8197	0.0000	0.0000;
	174	1	0	0	0	0	1	1.0911492	20.353191	220	4	1.11	0.95	105.2017	0.4016	0.0000	0.0000;
	175	1	0	0	0	0	1	1.0802612	25.257031	220	4	1.11	0.95	100.9532	-1.9153	0.0000	0.0000;
	176	1	0	0	0	0	1	1.0802658	25.266041	220	4	1.11	0.95	100.9503	-1.9197	0.0000	0.0000;
	177	1	0	0	0	0	1	1.0817101	26.557252	220	4	1.11	0.95	100.4934	-2.2064	0.0000	0.0000;
	178	1	0	0	0	0	1	1.0817101	26.557252	220	4	1.11	0.95	100.4934	-2.2064	0.0000	0.0000;
	179	2	3.13	1.5	0	0	1	1.1099162	21.486859	220	4	1.11	0.95	105.1553	0.0000	0.0000	0.0000;
	180	1	0	0	0	0	1	1.0673522	19.657735	220	4	1.11	0.95	106.7210	0.8008	0.0000	0.0000;
	181	1	0	0	0	0	1	1.0732574	17.553962	220	5	1.11	0.95	107.4384	0.2064	0.0000	0.0000;
	182	1	0	0	0	0	1	1.0910728	16.004643	220	5	1.11	0.95	108.8386	-0.4811	0.0000	0.0000;
	183	1	0	0	0	0	1	1.0378187	17.132387	400	5	1.05	0.95	108.4907	-0.4744	0.0000	0.0000;
	184	1	0	0	0	0	1	1.0378411	17.130523	400	5	1.05	0.95	108.4921	-0.4746	0.0000	0.0000;
	185	1	0	0	0	0	1	1.0320725	19.082224	400	5	1.05	0.95	107.5507	0.1630	0.0000	0.0000;
	186	1	0	0	0	0	1	1.0320886	19.078437	400	5	1.05	0.95	107.5529	0.1627	0.0000	0.0000;
	187	1	0	0	0	0	1	1.0799827	14.890281	220	5	1.11	0.95	109.3264	0.2353	0.0000	0.0000;
	188	1	0	0	0	0	1	1.0800155	14.889078	220	5	1.11	0.95	109.3271	0.2342	0.0000	0.0000;
	189	1	0	0	0	0	1	1.075878	16.448322	220	5	1.11	0.95	107.5941	0.3848	0.0000	0.0000;
	190	1	0	0	0	0	1	1.0758447	16.450906	220	5	1.11	0.95	107.5949	0.3844	0.0000	0.0000;
	191	1	0	0	0	0	1	1.018295	20.502011	400	5	1.05	0.95	106.7351	0.4434	0.0000	0.0000;
	192	1	0	0	0	0	1	1.0770296	18.223772	220	5	1.11	0.95	107.1996	0.2301	0.0000	0.0000;
	193	1	0	0	0	0	1	1.0770074	18.226404	220	5	1.11	0.95	107.1982	0.2309	0.0000	0.0000;
	194	1	0	0	0	0	1	1.0326582	17.355132	400	5	1.05	0.95	108.4815	0.3003	0.0000	0.0000;
	195	1	0	0	0	0	1	1.0326384	17.350893	400	5	1.05	0.95	108.4841	0.3010	0.0000	0.0000;
	196	1	0	0	0	0	1	1.0748167	14.510003	220	5	1.11	0.95	109.8816	0.5588	0.0000	0.0000;
	197	1	0	0	0	0	1	1.074833	14.50988	220	5	1.11	0.95	109.8811	0.5586	0.0000	0.0000;
	198	1	0	0	0	-117	1	1.029285	18.184061	400	5	1.05	0.95	107.8538	-0.3758	0.0000	0.0000;
	199	1	0	0	0	0	1	1.0293306	18.17969	400	5	1.05	0.95	107.8567	-0.3766	0.0000	0.0000;
	200	1	0	0	0	0	1	1.0688896	16.199594	220	5	1.11	0.95	108.4342	0.6220	0.0000	0.0000;
	201	1	0	0	0	0	1	1.0688729	16.202922	220	5	1.11	0.95	108.4350	0.6227	0.0000	0.0000;
	202	1	0	0	0	0	1	1.0716109	17.886372	220	5	1.11	0.95	107.9103	0.7152	0.0000	0.0000;
	203	1	0	0	0	0	1	1.0715607	17.874031	220	5	1.11	0.95	107.9148	0.7153	0.0000	0.0000;
	204	2	0	0	0	0	1	1.0342258	20.333595	400	5	1.05	0.95	107.0336	-0.0006	0.0000	0.0000;
	205	2	0	0	0	0	1	1.0342303	20.334571	400	5	1.05	0.95	107.0337	0.0000	0.0000	0.0000;
	206	1	0	0	0	0	1	1.0867692	14.60567	220	5	1.11	0.95	109.8891	-0.5288	0.0000	0.0000;
	207	1	0	0	0	0	1	1.0867775	14.609789	220	5	1.11	0.95	109.8857	-0.5291	0.0000	0.0000;
	208	1	9.59	1	0	0	1	1.0888166	17.930099	110	1	1.12	0.95	108.3381	0.2777	0.0000	0.0000;
	209	1	4.795	0.5	0	0	1	1.0763513	10.051065	110	1	1.12	0.95	114.9045	0.2246	0.0000	0.0000;
	210	1	4.262	2	0	0	1	1.0944055	18.865464	110	1	1.12	0.95	105.4624	1.1041	0.0000	0.0000;
	211	1	6.5	5.4	0	0	1	1.0655484	17.232932	110	1	1.12	0.95	108.9990	2.0787	0.0000	0.0000;
	212	1	2.877	0.6	0	0	1	1.090314	35.891165	110	1	1.12	0.95	98.3759	0.1886	0.0000	0.0000;
	213	1	3.197	0.3	0	0	1	1.0968887	34.313591	110	1	1.12	0.95	98.4292	0.2878	0.0000	0.0000;
	214	2	21.711	12.3	0	0	1	1.1118352	17.616824	110	1	1.12	0.95	106.3528	0.0000	0.0000	0.0000;
	215	1	12.254	2	0	0	1	1.1129922	17.864133	110	1	1.12	0.95	106.0357	-0.0057	0.0000	0.0000;
	216	1	6.926	2	0	0	1	1.1125137	17.785716	110	1	1.12	0.95	106.1331	0.0014	0.0000	0.0000;
	217	1	10.655	1.5	0	0	1	1.1114167	17.495993	110	1	1.12	0.95	106.4693	0.0065	0.0000	0.0000;
	218	1	7.672	3	0	0	1	1.0812449	17.63771	110	1	1.12	0.95	107.8823	1.4420	0.0000	0.0000;
	219	1	8.524	2	0	0	1	1.081005	17.254656	110	1	1.12	0.95	107.7625	1.3996	0.0000	0.0000;
	220	2	0	0	0	0	1	1.1012585	20.703401	110	1	1.12	0.95	102.9820	-0.0000	0.0000	0.0000;
	221	2	6.606	2.1	0	0	1	1.0943315	28.897343	110	1	1.12	0.95	102.1784	0.1191	0.0000	0.0000;
	222	1	8.099	1.5	0	0	1	1.0912687	18.207913	110	1	1.12	0.95	106.3238	1.0409	0.0000	0.0000;
	223	1	0.746	0.1	0	0	1	1.0754351	34.329856	110	1	1.12	0.95	99.7831	0.4544	0.0000	0.0000;
	224	1	3.943	0.2	0	0	1	1.1051233	17.579856	110	1	1.12	0.95	106.6097	0.3462	0.0000	0.0000;
	225	1	3.197	0.5	0	0	1	1.0928473	13.186131	110	1	1.12	0.95	111.3766	0.0711	0.0000	0.0000;
	226	1	12.787	1	0	0	1	1.1035287	17.749421	110	1	1.12	0.95	107.3093	-0.0552	0.0000	0.0000;
	227	1	4.475	0.7	0	0	1	1.0926342	18.011529	110	1	1.12	0.95	106.4583	0.9337	0.0000	0.0000;
	228	1	4.262	0.7	0	0	1	1.092672	18.018912	110	1	1.12	0.95	106.4553	0.9331	0.0000	0.0000;
	229	1	2.451	0.98	0	0	1	1.1120912	29.310466	110	1	1.12	0.95	100.9712	0.2943	0.0000	0.0000;
	230	1	2.451	0.98	0	0	1	1.0943126	27.612219	110	1	1.12	0.95	102.6728	0.7299	0.0000	0.0000;
	231	1	5.327	1	0	0	1	1.0838177	17.940437	110	1	1.12	0.95	106.8773	1.2828	0.0000	0.0000;
	232	1	4.262	1	0	0	1	1.0970947	34.361997	110	1	1.12	0.95	98.3785	0.2918	0.0000	0.0000;
	233	1	9.057	0.4	0	0	1	1.0734703	26.634249	110	1	1.12	0.95	102.9378	-0.4753	0.0000	0.0000;
	234	1	31.966	28.001	0	0	1	1.0796816	35.051462	110	1	1.12	0.95	98.3864	0.5689	0.0000	0.0000;
	235	1	5.86	0.8	0	0	1	1.0868262	14.976994	110	1	1.12	0.95	110.1179	0.4119	0.0000	0.0000;
	236	1	8.631	2.94	0	0	1	1.1086811	29.751751	110	1	1.12	0.95	100.2155	0.5540	0.0000	0.0000;
	237	1	5.967	0.2	0	0	1	1.0862746	14.864574	110	1	1.12	0.95	110.2606	0.4057	0.0000	0.0000;
	238	1	5.328	0.5	0	0	1	1.093531	15.964334	110	1	1.12	0.95	109.1243	0.2496	0.0000	0.0000;
	239	2	0	0	0	0	1	1.0840654	16.48701	110	1	1.12	0.95	108.7679	1.0653	0.0000	0.0000;
	240	1	12.04	1	0	0	1	1.0860973	13.990755	110	1	1.12	0.95	110.3373	0.7135	0.0000	0.0000;
	241	1	3.836	1.18	0	0	1	1.1000107	28.4248	110	1	1.12	0.95	101.6194	0.6764	0.0000	0.0000;
	242	1	3.729	0.4	0	0	1	1.1139775	31.554359	110	1	1.12	0.95	98.9178	-0.2346	0.0000	0.0000;
	243	1	3.729	0.4	0	0	1	1.1140714	31.567922	110	1	1.12	0.95	98.9136	-0.2315	0.0000	0.0000;
	244	1	2.131	1.1	0	0	1	1.1061558	17.474939	110	1	1.12	0.95	107.7712	0.0149	0.0000	0.0000;
	245	1	0	0	0	0	1	1.0983181	36.948163	110	1	1.12	0.95	97.6738	0.0465	0.0000	0.0000;
	246	2	0	5	0	0	1	1.0790447	40.237314	22	1	1.12	0.95	97.9055	-0.0000	0.0000	0.0000;
	247	1	7.458	1	0	0	1	1.0886183	11.969282	110	1	1.12	0.95	112.6771	0.1192	0.0000	0.0000;
	248	1	2.131	0	0	0	1	1.0888205	11.820712	110	1	1.12	0.95	111.5455	0.2852	0.0000	0.0000;
	249	1	2.131	0	0	0	1	1.0955405	12.787709	110	1	1.12	0.95	111.3188	0.0353	0.0000	0.0000;
	250	1	2.664	0.5	0	0	1	1.0656001	8.6138542	110	1	1.12	0.95	118.1059	-0.0131	0.0000	0.0000;
	251	1	3.516	0.1	0	0	1	1.1080612	18.866915	110	1	1.12	0.95	105.3977	0.2954	0.0000	0.0000;
	252	1	11.721	5.4	0	0	1	1.0885084	22.800938	110	1	1.12	0.95	103.6253	0.7883	0.0000	0.0000;
	253	1	11.721	4	0	0	1	1.0850344	17.911044	110	1	1.12	0.95	106.8505	1.2318	0.0000	0.0000;
	254	1	10.122	1	0	0	1	1.0778039	10.575275	110	1	1.12	0.95	113.3108	0.4860	0.0000	0.0000;
	255	1	12.787	1.5	0	0	1	1.095206	13.351182	110	1	1.12	0.95	110.8171	0.1575	0.0000	0.0000;
	256	1	4.795	0	0	0	1	1.0954886	13.191103	110	1	1.12	0.95	110.9039	0.1461	0.0000	0.0000;
	257	1	3.197	0.65	0	0	1	1.0900687	35.741435	110	1	1.12	0.95	98.8092	0.2119	0.0000	0.0000;
	258	1	3.197	0.65	0	0	1	1.0900172	35.729503	110	1	1.12	0.95	98.8135	0.2127	0.0000	0.0000;
	259	1	7.992	2.47	0	0	1	1.1039829	28.588006	110	1	1.12	0.95	101.8938	0.4934	0.0000	0.0000;
	260	1	4.795	0	0	0	1	1.0647876	8.2670221	110	1	1.12	0.95	118.5529	-0.0999	0.0000	0.0000;
	261	1	8.098	1.5	0	0	1	1.0892538	18.399241	110	1	1.12	0.95	106.3940	1.2363	0.0000	0.0000;
	262	1	0	0	0	0	1	1.08791	19.323527	110	1	1.12	0.95	105.7274	1.0744	0.0000	0.0000;
	263	1	1.279	1	0	0	1	1.0846324	14.362844	110	1	1.12	0.95	110.6104	0.4644	0.0000	0.0000;
	264	1	25.574	22	0	0	1	1.0967395	36.708239	110	1	1.12	0.95	97.7521	0.0829	0.0000	0.0000;
	265	1	34.097	30	0	0	1	1.0890012	34.374325	110	1	1.12	0.95	98.3746	0.4827	0.0000	0.0000;
	266	1	27.704	0.8	0	0	1	1.1007233	36.847165	110	1	1.12	0.95	97.7278	-0.0657	0.0000	0.0000;
	267	1	1.066	0	0	0	1	1.0833557	18.096812	110	1	1.12	0.95	106.7609	1.3259	0.0000	0.0000;
	268	1	9.59	0.8	0	0	1	1.0851905	17.171262	110	1	1.12	0.95	107.9081	0.7898	0.0000	0.0000;
	269	1	5.967	2	0	0	1	1.1114105	19.185973	110	1	1.12	0.95	105.0311	0.1993	0.0000	0.0000;
	270	1	9.057	1.5	0	0	1	1.1022215	17.329415	110	1	1.12	0.95	107.7608	-0.0569	0.0000	0.0000;
	271	1	6.393	0.5	0	0	1	1.0663813	8.9665841	110	1	1.12	0.95	117.6812	0.0605	0.0000	0.0000;
	272	1	7.885	1.85	0	0	1	1.0833853	18.135283	110	1	1.12	0.95	106.7596	1.3745	0.0000	0.0000;
	273	1	0.426	0.1	0	0	1	1.0792157	17.625822	110	1	1.12	0.95	108.0473	1.5545	0.0000	0.0000;
	274	1	0.213	0.06	0	0	1	1.0900879	18.338658	110	1	1.12	0.95	106.1249	1.2102	0.0000	0.0000;
	275	1	0	0	0	0	1	1.0889678	18.159177	110	1	1.12	0.95	106.2866	1.2612	0.0000	0.0000;
	276	1	11.401	5.18	0	0	1	1.1150578	30.135091	110	1	1.12	0.95	100.1467	0.4513	0.0000	0.0000;
	277	1	0	0	0	0	1	1.1084132	29.441744	110	1	1.12	0.95	100.2703	0.5394	0.0000	0.0000;
	278	1	5.328	1.4	0	0	1	1.0968772	29.110755	110	1	1.12	0.95	101.7963	0.0741	0.0000	0.0000;
	279	1	2.131	0.5	0	0	1	1.1069276	16.811099	110	1	1.12	0.95	107.4812	0.0233	0.0000	0.0000;
	280	1	5.328	0.5	0	0	1	1.0992968	15.812566	110	1	1.12	0.95	109.0530	0.0871	0.0000	0.0000;
	281	1	5.328	1	0	0	1	1.0926239	18.465624	110	1	1.12	0.95	105.9008	1.1420	0.0000	0.0000;
	282	1	5.328	1	0	0	1	1.092756	19.359052	110	1	1.12	0.95	105.6253	0.8809	0.0000	0.0000;
	283	1	14.918	12	0	0	1	1.0788213	34.359675	110	1	1.12	0.95	98.5469	0.6363	0.0000	0.0000;
	284	1	37.294	33	0	0	1	1.0785542	34.364478	110	1	1.12	0.95	98.5509	0.6394	0.0000	0.0000;
	285	1	1.386	0.4	0	0	1	1.1044943	36.735701	110	1	1.12	0.95	97.7556	-0.4027	0.0000	0.0000;
	286	1	0	0	0	0	1	1.0986013	36.715258	110	1	1.12	0.95	97.7198	0.0402	0.0000	0.0000;
	287	1	8.525	2.9	0	0	1	1.115557	30.326573	110	1	1.12	0.95	99.9826	0.4791	0.0000	0.0000;
	288	1	7.459	2	0	0	1	1.1097537	29.572175	110	1	1.12	0.95	100.7916	0.5612	0.0000	0.0000;
	289	1	6.926	0.5	0	0	1	1.0905924	13.708256	110	1	1.12	0.95	111.2699	0.1398	0.0000	0.0000;
	290	1	4.795	0	0	0	1	1.1050274	15.883572	110	1	1.12	0.95	108.0311	0.1144	0.0000	0.0000;
	291	1	3.729	2.5	0	0	1	1.0845059	17.25446	110	1	1.12	0.95	107.9124	1.1278	0.0000	0.0000;
	292	1	2.344	0.2	0	0	1	1.0978273	27.050252	110	1	1.12	0.95	103.1786	0.4493	0.0000	0.0000;
	293	1	11.402	4.1	0	0	1	1.0934149	19.430047	110	1	1.12	0.95	105.5382	0.8674	0.0000	0.0000;
	294	1	8.311	1.5	0	0	1	1.0900309	18.418866	110	1	1.12	0.95	106.1755	1.2228	0.0000	0.0000;
	295	1	4.902	1.51	0	0	1	1.1173899	30.590613	110	1	1.12	0.95	99.6830	0.4629	0.0000	0.0000;
	296	1	1.704	1.4	0	0	1	1.0896499	20.4236	110	1	1.12	0.95	105.1630	0.7839	0.0000	0.0000;
	297	1	4.582	0.5	0	0	1	1.0821362	16.826872	110	1	1.12	0.95	108.5430	0.8375	0.0000	0.0000;
	298	1	7.672	0.8	0	0	1	1.0964546	26.985327	110	1	1.12	0.95	103.2966	0.4990	0.0000	0.0000;
	299	1	4.262	0.7	0	0	1	1.1058044	29.637653	110	1	1.12	0.95	100.8875	0.0854	0.0000	0.0000;
	300	1	6.18	2.11	0	0	1	1.110566	29.286063	110	1	1.12	0.95	100.9817	0.3499	0.0000	0.0000;
	301	1	8.205	2.53	0	0	1	1.0936642	27.562771	110	1	1.12	0.95	102.7397	0.7492	0.0000	0.0000;
	302	1	8.524	0.5	0	0	1	1.1090796	17.4445	110	1	1.12	0.95	106.7655	0.0142	0.0000	0.0000;
	303	1	0	0	0	0	1	1.1086778	29.437585	110	1	1.12	0.95	100.2704	0.5248	0.0000	0.0000;
	304	1	4.049	1.5	0	0	1	1.0697496	33.774693	110	1	1.12	0.95	100.5325	0.5772	0.0000	0.0000;
	305	1	7.992	2.72	0	0	1	1.1174004	30.594184	110	1	1.12	0.95	99.6793	0.4634	0.0000	0.0000;
	306	1	7.779	2.4	0	0	1	1.1003819	28.478755	110	1	1.12	0.95	101.5456	0.6748	0.0000	0.0000;
	307	1	13.746	4.24	0	0	1	1.1148589	30.145937	110	1	1.12	0.95	100.1537	0.4687	0.0000	0.0000;
	308	1	12.254	3.78	0	0	1	1.1108519	29.231315	110	1	1.12	0.95	101.0487	0.3232	0.0000	0.0000;
	309	2	14.147	9.046	0	0	1	1.109326	29.572565	110	1	1.12	0.95	100.5960	0.4579	0.0000	0.0000;
	310	2	11.759	7	0	0	1	1.1118607	29.261004	110	1	1.12	0.95	101.0131	0.2846	0.0000	0.0000;
	311	2	15.573	8.3	0	0	1	1.0971805	27.960525	110	1	1.12	0.95	102.2436	0.6692	0.0000	0.0000;
	312	1	0	0	0	0	1	1.1106712	29.265999	110	1	1.12	0.95	101.0067	0.3395	0.0000	0.0000;
	313	2	10.354	5.48	0	0	1	1.1155075	30.132234	110	1	1.12	0.95	100.1466	0.4246	0.0000	0.0000;
	314	2	6.18	5.15	0	0	1	1.1064786	29.492707	110	1	1.12	0.95	100.3977	0.6172	0.0000	0.0000;
	315	1	8.525	1.2	0	0	1	1.097328	27.336383	110	1	1.12	0.95	102.9287	0.5474	0.0000	0.0000;
	316	1	2.131	0.5	0	0	1	1.1049384	17.287793	110	1	1.12	0.95	107.4558	-0.1016	0.0000	0.0000;
	317	1	4.794	1.5	0	0	1	1.0811616	16.656864	110	1	1.12	0.95	108.5690	1.2503	0.0000	0.0000;
	318	1	3.996	1.25	0	0	1	1.0818273	16.490006	110	1	1.12	0.95	108.7930	1.1805	0.0000	0.0000;
	319	1	6.127	1.25	0	0	1	1.0817721	16.492949	110	1	1.12	0.95	108.7903	1.1808	0.0000	0.0000;
	320	1	6.926	2.5	0	0	1	1.0892829	18.455761	110	1	1.12	0.95	106.0968	1.2303	0.0000	0.0000;
	321	1	8.205	2.53	0	0	1	1.1153908	30.254283	110	1	1.12	0.95	100.0324	0.4749	0.0000	0.0000;
	322	2	14.598	4.51	0	0	1	1.1139769	30.001341	110	1	1.12	0.95	100.3025	0.4638	0.0000	0.0000;
	323	1	12.787	1.5	0	0	1	1.0975569	15.565517	110	1	1.12	0.95	109.4417	0.1012	0.0000	0.0000;
	324	1	13.959	4.76	0	0	1	1.1065538	29.51494	110	1	1.12	0.95	100.3897	0.6147	0.0000	0.0000;
	325	1	5.967	1.84	0	0	1	1.108802	29.531824	110	1	1.12	0.95	100.6460	0.4725	0.0000	0.0000;
	326	1	5.967	1.84	0	0	1	1.1091726	29.466711	110	1	1.12	0.95	100.7332	0.4450	0.0000	0.0000;
	327	1	7.459	1	0	0	1	1.0989807	15.778859	110	1	1.12	0.95	109.1187	0.0915	0.0000	0.0000;
	328	1	13.852	3	0	0	1	1.0821851	17.179478	110	1	1.12	0.95	108.3906	1.0377	0.0000	0.0000;
	329	1	9.057	2.8	0	0	1	1.1091807	29.463542	110	1	1.12	0.95	100.7368	0.4445	0.0000	0.0000;
	330	1	5.328	2	0	0	1	1.1064358	29.475351	110	1	1.12	0.95	100.7850	0.3157	0.0000	0.0000;
	331	1	3.197	1	0	0	1	1.106047	29.430653	110	1	1.12	0.95	100.8602	0.2953	0.0000	0.0000;
	332	1	26.852	8.29	0	0	1	1.1127952	29.937803	110	1	1.12	0.95	100.3845	0.5063	0.0000	0.0000;
	333	1	7.459	1	0	0	1	1.0912164	24.701894	110	1	1.12	0.95	102.2449	0.0270	0.0000	0.0000;
	334	1	2.664	0.8	0	0	1	1.1026807	28.491161	110	1	1.12	0.95	102.0885	0.5191	0.0000	0.0000;
	335	1	5.86	0.8	0	0	1	1.0814444	17.116472	110	1	1.12	0.95	108.5126	1.0519	0.0000	0.0000;
	336	1	5.434	0.2	0	0	1	1.0823415	13.421735	110	1	1.12	0.95	110.9120	1.0025	0.0000	0.0000;
	337	1	7.352	2.27	0	0	1	1.1020343	28.731485	110	1	1.12	0.95	101.2655	0.6526	0.0000	0.0000;
	338	1	7.459	2.7	0	0	1	1.0894284	16.001245	110	1	1.12	0.95	109.3463	0.3928	0.0000	0.0000;